version 2
run default_tcp-0-20190802-15:39:12-36428
attr configname default_tcp
attr datetime 20190802-15:39:12
attr experiment default_tcp
attr inifile omnetpp.ini
attr iterationvars ""
attr iterationvarsf ""
attr measurement ""
attr network networksim2
attr processid 36428
attr repetition 0
attr replication #0
attr resultdir results
attr runnumber 0
attr seedset 0
param **.numApps 1
param **.queue.frameCapacity 50
param **.queue.queueName "\"DropTailQueue\""
param *.SN*.app[*].typename "\"SensorNode\""
param *.DF*.app[*].typename "\"DFNode\""
param *.SN1.app[*].connectAddress "\"DF1\""
param *.SN2.app[*].connectAddress "\"DF1\""
param *.SN3.app[*].connectAddress "\"DF2\""
param *.SN4.app[*].connectAddress "\"DF2\""
param **.switch false
param **.app[*].thinkTime 0.2s
param **.app[*].idleInterval 0.1s
param *.configurator.config "xml(\"<config><interface hosts='*' address='192.168.1.x' netmask='255.255.255.0'/></config>\")"

vector 0 networksim2.SN1.ppp[0].queue queueLength:vector ETV
attr interpolationmode sample-hold
attr title "queue length, vector"
vector 1 networksim2.SN1.ppp[0].ppp transmissionState:vector ETV
attr interpolationmode sample-hold
attr source transmissionStateChanged
attr title "tx state, vector"
vector 2 networksim2.DF1.ppp[0].queue queueLength:vector ETV
attr interpolationmode sample-hold
attr title "queue length, vector"
vector 3 networksim2.DF1.ppp[0].ppp transmissionState:vector ETV
attr interpolationmode sample-hold
attr source transmissionStateChanged
attr title "tx state, vector"
vector 4 networksim2.SN1.tcp tcpRcvQueueBytes ETV
vector 5 networksim2.SN1.tcp "advertised window" ETV
vector 6 networksim2.SN1.tcp "receive window" ETV
vector 7 networksim2.SN1.tcp "sent ack" ETV
vector 8 networksim2.SN1.ppp[0].queue packetReceived:vector(packetBytes) ETV
attr interpolationmode none
attr title "received packets, vector(packetBytes)"
vector 9 networksim2.SN1.ppp[0].queue queueingTime:vector ETV
attr interpolationmode none
attr title "queueing time, vector"
vector 10 networksim2.SN1.ppp[0].ppp rcvdPkFromHl:vector(packetBytes) ETV
attr interpolationmode none
attr source packetReceivedFromUpper
attr title "packets received from higher layer, vector(packetBytes)"
vector 11 networksim2.SN1.ppp[0].ppp txPk:vector(packetBytes) ETV
attr interpolationmode none
attr source packetSentToLower
attr title "packets transmitted, vector(packetBytes)"
vector 12 networksim2.DF1.ppp[0].ppp rxPkOk:vector(packetBytes) ETV
attr interpolationmode none
attr source rxPkOk
attr title "packets received OK, vector(packetBytes)"
vector 13 networksim2.DF1.ppp[0].ppp passedUpPk:vector(packetBytes) ETV
attr interpolationmode none
attr source packetSentToUpper
attr title "packets passed to higher layer, vector(packetBytes)"
vector 14 networksim2.DF1.tcp "rcvd seq" ETV
vector 15 networksim2.DF1.tcp "rcvd ack" ETV
vector 16 networksim2.DF1.tcp "advertised window" ETV
vector 17 networksim2.DF1.tcp "send window" ETV
vector 18 networksim2.DF1.tcp tcpRcvQueueBytes ETV
vector 19 networksim2.DF1.tcp "receive window" ETV
vector 20 networksim2.DF1.tcp "sent ack" ETV
vector 21 networksim2.DF1.ppp[0].queue packetReceived:vector(packetBytes) ETV
attr interpolationmode none
attr title "received packets, vector(packetBytes)"
vector 22 networksim2.DF1.ppp[0].queue queueingTime:vector ETV
attr interpolationmode none
attr title "queueing time, vector"
vector 23 networksim2.DF1.ppp[0].ppp rcvdPkFromHl:vector(packetBytes) ETV
attr interpolationmode none
attr source packetReceivedFromUpper
attr title "packets received from higher layer, vector(packetBytes)"
vector 24 networksim2.DF1.ppp[0].ppp txPk:vector(packetBytes) ETV
attr interpolationmode none
attr source packetSentToLower
attr title "packets transmitted, vector(packetBytes)"
vector 25 networksim2.SN1.ppp[0].ppp rxPkOk:vector(packetBytes) ETV
attr interpolationmode none
attr source rxPkOk
attr title "packets received OK, vector(packetBytes)"
vector 26 networksim2.SN1.ppp[0].ppp passedUpPk:vector(packetBytes) ETV
attr interpolationmode none
attr source packetSentToUpper
attr title "packets passed to higher layer, vector(packetBytes)"
vector 27 networksim2.SN1.tcp "rcvd seq" ETV
vector 28 networksim2.SN1.tcp "rcvd ack" ETV
vector 29 networksim2.SN1.tcp "send window" ETV
vector 30 networksim2.SN1.tcp "sent seq" ETV
vector 31 networksim2.SN1.tcp "unacked bytes" ETV
vector 32 networksim2.DF1.tcp "unacked bytes" ETV
vector 33 networksim2.DF1.tcp "rcvd dupAcks" ETV
vector 34 networksim2.DF1.tcp "sent seq" ETV
vector 35 networksim2.SN1.tcp "measured RTT" ETV
vector 36 networksim2.SN1.tcp "smoothed RTT" ETV
vector 37 networksim2.SN1.tcp RTTVAR ETV
vector 38 networksim2.SN1.tcp RTO ETV
vector 39 networksim2.SN1.tcp cwnd ETV
vector 40 networksim2.SN1.tcp "rcvd dupAcks" ETV
vector 41 networksim2.DF1.tcp "measured RTT" ETV
vector 42 networksim2.DF1.tcp "smoothed RTT" ETV
vector 43 networksim2.DF1.tcp RTTVAR ETV
vector 44 networksim2.DF1.tcp RTO ETV
vector 45 networksim2.DF1.tcp cwnd ETV
39	48	1.11544	1072
35	48	1.11544	0.06728
36	48	1.11544	0.00841
37	48	1.11544	0.66466
38	48	1.11544	2.66705
29	17	1.04816	7504
29	48	1.11544	7504
6	3	1	7504
6	17	1.04816	7504
6	21	1.04816	7504
6	52	1.16208	7504
6	70	1.25248	7504
6	87	1.29912	7504
6	104	1.34576	7504
6	121	1.3924	7504
6	138	1.43904	7504
6	155	1.48568	7504
6	172	1.53232	7504
6	189	1.57896	7504
6	206	1.6256	7504
6	223	1.67224	7504
6	240	1.71888	7504
6	257	1.76552	7504
6	274	1.81216	7504
6	289	1.8588	7504
6	304	1.90544	7504
6	319	1.95208	7504
6	334	1.99872	7504
6	349	2.04536	7504
6	364	2.092	7504
6	379	2.13864	7504
6	394	2.18528	7504
6	409	2.23192	7504
6	424	2.27856	7504
6	439	2.3252	7504
6	454	2.37184	7504
6	469	2.41848	7504
6	484	2.46512	7504
6	499	2.51176	7504
6	514	2.5584	7504
6	529	2.60504	7504
6	544	2.65168	7504
6	559	2.69832	7504
6	574	2.74496	7504
6	589	2.7916	7504
6	604	2.83824	7504
6	619	2.88488	7504
6	634	2.93152	7504
6	649	2.97816	7504
6	664	3.0248	7504
6	679	3.07144	7504
6	694	3.11808	7504
6	709	3.16472	7504
6	724	3.21136	7504
6	739	3.258	7504
6	754	3.30464	7504
6	769	3.35128	7504
6	784	3.39792	7504
6	799	3.44456	7504
6	814	3.4912	7504
6	829	3.53784	7504
6	844	3.58448	7504
6	859	3.63112	7504
6	874	3.67776	7504
6	889	3.7244	7504
6	904	3.77104	7504
6	919	3.81768	7504
6	934	3.86432	7504
6	949	3.91096	7504
6	964	3.9576	7504
6	979	4.00424	7504
6	994	4.05088	7504
6	1009	4.09752	7504
6	1024	4.14416	7504
6	1039	4.1908	7504
6	1054	4.23744	7504
6	1069	4.28408	7504
6	1084	4.33072	7504
6	1099	4.37736	7504
6	1114	4.424	7504
6	1129	4.47064	7504
6	1144	4.51728	7504
6	1159	4.56392	7504
6	1174	4.61056	7504
6	1189	4.6572	7504
6	1204	4.70384	7504
6	1219	4.75048	7504
6	1234	4.79712	7504
6	1249	4.84376	7504
6	1264	4.8904	7504
6	1279	4.93704	7504
6	1294	4.98368	7504
6	1309	5.03032	7504
6	1324	5.07696	7504
6	1339	5.1236	7504
6	1354	5.17024	7504
6	1369	5.21688	7504
6	1384	5.26352	7504
6	1399	5.31016	7504
6	1414	5.3568	7504
6	1429	5.40344	7504
6	1444	5.45008	7504
6	1459	5.49672	7504
6	1474	5.54336	7504
6	1489	5.59	7504
6	1504	5.63664	7504
6	1519	5.68328	7504
6	1534	5.72992	7504
6	1549	5.77656	7504
6	1564	5.8232	7504
6	1579	5.86984	7504
6	1594	5.91648	7504
6	1609	5.96312	7504
6	1624	6.00976	7504
6	1639	6.0564	7504
6	1654	6.10304	7504
6	1669	6.14968	7504
6	1684	6.19632	7504
6	1699	6.24296	7504
6	1714	6.2896	7504
6	1729	6.33624	7504
6	1744	6.38288	7504
6	1759	6.42952	7504
6	1774	6.47616	7504
6	1789	6.5228	7504
6	1804	6.56944	7504
6	1819	6.61608	7504
6	1834	6.66272	7504
6	1849	6.70936	7504
6	1864	6.756	7504
6	1879	6.80264	7504
6	1894	6.84928	7504
6	1909	6.89592	7504
6	1924	6.94256	7504
6	1939	6.9892	7504
6	1954	7.03584	7504
6	1969	7.08248	7504
6	1984	7.12912	7504
6	1999	7.17576	7504
6	2014	7.2224	7504
6	2029	7.26904	7504
6	2044	7.31568	7504
6	2059	7.36232	7504
6	2074	7.40896	7504
6	2089	7.4556	7504
6	2104	7.50224	7504
6	2119	7.54888	7504
6	2134	7.59552	7504
6	2149	7.64216	7504
6	2164	7.6888	7504
6	2179	7.73544	7504
6	2194	7.78208	7504
6	2209	7.82872	7504
6	2224	7.87536	7504
6	2239	7.922	7504
6	2254	7.96864	7504
6	2269	8.01528	7504
6	2284	8.06192	7504
6	2299	8.10856	7504
6	2314	8.1552	7504
6	2329	8.20184	7504
6	2344	8.24848	7504
6	2359	8.29512	7504
6	2374	8.34176	7504
6	2389	8.3884	7504
6	2404	8.43504	7504
6	2419	8.48168	7504
6	2434	8.52832	7504
6	2449	8.57496	7504
6	2464	8.6216	7504
6	2479	8.66824	7504
6	2494	8.71488	7504
6	2509	8.76152	7504
6	2524	8.80816	7504
6	2539	8.8548	7504
6	2554	8.90144	7504
6	2569	8.94808	7504
6	2584	8.99472	7504
6	2599	9.04136	7504
6	2614	9.088	7504
6	2629	9.13464	7504
6	2644	9.18128	7504
6	2659	9.22792	7504
6	2674	9.27456	7504
6	2689	9.3212	7504
6	2704	9.36784	7504
6	2719	9.41448	7504
6	2734	9.46112	7504
6	2749	9.50776	7504
6	2764	9.5544	7504
6	2779	9.60104	7504
6	2794	9.64768	7504
6	2809	9.69432	7504
6	2824	9.74096	7504
6	2839	9.7876	7504
6	2854	9.83424	7504
6	2869	9.88088	7504
6	2884	9.92752	7504
6	2899	9.97416	7504
6	2914	10.0208	7504
6	2929	10.06744	7504
6	2944	10.11408	7504
6	2959	10.16072	7504
6	2974	10.20736	7504
6	2989	10.254	7504
6	3004	10.30064	7504
6	3019	10.34728	7504
6	3034	10.39392	7504
6	3049	10.44056	7504
6	3064	10.4872	7504
6	3079	10.53384	7504
6	3094	10.58048	7504
6	3109	10.62712	7504
6	3124	10.67376	7504
6	3139	10.7204	7504
6	3154	10.76704	7504
6	3169	10.81368	7504
6	3184	10.86032	7504
6	3199	10.90696	7504
6	3214	10.9536	7504
6	3229	11.00024	7504
6	3244	11.04688	7504
6	3259	11.09352	7504
6	3274	11.14016	7504
6	3289	11.1868	7504
6	3304	11.23344	7504
6	3319	11.28008	7504
6	3334	11.32672	7504
6	3349	11.37336	7504
6	3364	11.42	7504
6	3379	11.46664	7504
6	3394	11.51328	7504
6	3409	11.55992	7504
6	3424	11.60656	7504
6	3439	11.6532	7504
6	3454	11.69984	7504
6	3469	11.74648	7504
6	3484	11.79312	7504
6	3499	11.83976	7504
6	3514	11.8864	7504
6	3529	11.93304	7504
6	3544	11.97968	7504
6	3559	12.02632	7504
6	3574	12.07296	7504
6	3589	12.1196	7504
6	3604	12.16624	7504
6	3619	12.21288	7504
6	3634	12.25952	7504
6	3649	12.30616	7504
6	3664	12.3528	7504
6	3679	12.39944	7504
6	3694	12.44608	7504
6	3709	12.49272	7504
6	3724	12.53936	7504
6	3739	12.586	7504
6	3754	12.63264	7504
6	3769	12.67928	7504
6	3784	12.72592	7504
6	3799	12.77256	7504
6	3814	12.8192	7504
6	3829	12.86584	7504
6	3844	12.91248	7504
6	3859	12.95912	7504
6	3874	13.00576	7504
6	3889	13.0524	7504
6	3904	13.09904	7504
6	3919	13.14568	7504
6	3934	13.19232	7504
6	3949	13.23896	7504
6	3964	13.2856	7504
6	3979	13.33224	7504
6	3994	13.37888	7504
6	4009	13.42552	7504
6	4024	13.47216	7504
6	4039	13.5188	7504
6	4054	13.56544	7504
6	4069	13.61208	7504
6	4084	13.65872	7504
6	4099	13.70536	7504
6	4114	13.752	7504
6	4129	13.79864	7504
6	4144	13.84528	7504
6	4159	13.89192	7504
6	4174	13.93856	7504
6	4189	13.9852	7504
6	4204	14.03184	7504
6	4219	14.07848	7504
6	4234	14.12512	7504
6	4249	14.17176	7504
6	4264	14.2184	7504
6	4279	14.26504	7504
6	4294	14.31168	7504
6	4309	14.35832	7504
6	4324	14.40496	7504
6	4339	14.4516	7504
6	4354	14.49824	7504
6	4369	14.54488	7504
6	4384	14.59152	7504
6	4399	14.63816	7504
6	4414	14.6848	7504
6	4429	14.73144	7504
6	4444	14.77808	7504
6	4459	14.82472	7504
6	4474	14.87136	7504
6	4489	14.918	7504
6	4504	14.96464	7504
6	4519	15.01128	7504
6	4534	15.05792	7504
6	4549	15.10456	7504
6	4564	15.1512	7504
6	4579	15.19784	7504
6	4594	15.24448	7504
6	4609	15.29112	7504
6	4624	15.33776	7504
6	4639	15.3844	7504
6	4654	15.43104	7504
6	4669	15.47768	7504
6	4684	15.52432	7504
6	4699	15.57096	7504
6	4714	15.6176	7504
6	4729	15.66424	7504
6	4744	15.71088	7504
6	4759	15.75752	7504
6	4774	15.80416	7504
6	4789	15.8508	7504
6	4804	15.89744	7504
6	4819	15.94408	7504
6	4834	15.99072	7504
6	4849	16.03736	7504
6	4864	16.084	7504
6	4879	16.13064	7504
6	4894	16.17728	7504
6	4909	16.22392	7504
6	4924	16.27056	7504
6	4939	16.3172	7504
6	4954	16.36384	7504
6	4969	16.41048	7504
6	4984	16.45712	7504
6	4999	16.50376	7504
6	5014	16.5504	7504
6	5029	16.59704	7504
6	5044	16.64368	7504
6	5059	16.69032	7504
6	5074	16.73696	7504
6	5089	16.7836	7504
6	5104	16.83024	7504
6	5119	16.87688	7504
6	5134	16.92352	7504
6	5149	16.97016	7504
6	5164	17.0168	7504
6	5179	17.06344	7504
6	5194	17.11008	7504
6	5209	17.15672	7504
6	5224	17.20336	7504
6	5239	17.25	7504
6	5254	17.29664	7504
6	5269	17.34328	7504
6	5284	17.38992	7504
6	5299	17.43656	7504
6	5314	17.4832	7504
6	5329	17.52984	7504
6	5344	17.57648	7504
6	5359	17.62312	7504
6	5374	17.66976	7504
6	5389	17.7164	7504
6	5404	17.76304	7504
6	5419	17.80968	7504
6	5434	17.85632	7504
6	5449	17.90296	7504
6	5464	17.9496	7504
6	5479	17.99624	7504
6	5494	18.04288	7504
6	5509	18.08952	7504
6	5524	18.13616	7504
6	5539	18.1828	7504
6	5554	18.22944	7504
6	5569	18.27608	7504
6	5584	18.32272	7504
6	5599	18.36936	7504
6	5614	18.416	7504
6	5629	18.46264	7504
6	5644	18.50928	7504
6	5659	18.55592	7504
6	5674	18.60256	7504
6	5689	18.6492	7504
6	5704	18.69584	7504
6	5719	18.74248	7504
6	5734	18.78912	7504
6	5749	18.83576	7504
6	5764	18.8824	7504
6	5779	18.92904	7504
6	5794	18.97568	7504
6	5809	19.02232	7504
6	5824	19.06896	7504
6	5839	19.1156	7504
6	5854	19.16224	7504
6	5869	19.20888	7504
6	5884	19.25552	7504
6	5899	19.30216	7504
6	5914	19.3488	7504
6	5929	19.39544	7504
6	5944	19.44208	7504
6	5959	19.48872	7504
6	5974	19.53536	7504
6	5989	19.582	7504
6	6004	19.62864	7504
6	6019	19.67528	7504
6	6034	19.72192	7504
6	6049	19.76856	7504
6	6064	19.8152	7504
6	6079	19.86184	7504
6	6094	19.90848	7504
6	6109	19.95512	7504
6	6124	20.00176	7504
6	6139	20.0484	7504
6	6154	20.09504	7504
6	6169	20.14168	7504
6	6184	20.18832	7504
6	6199	20.23496	7504
6	6214	20.2816	7504
6	6229	20.32824	7504
6	6244	20.37488	7504
6	6259	20.42152	7504
6	6274	20.46816	7504
6	6289	20.5148	7504
6	6304	20.56144	7504
6	6319	20.60808	7504
6	6334	20.65472	7504
6	6349	20.70136	7504
6	6364	20.748	7504
6	6379	20.79464	7504
6	6394	20.84128	7504
6	6409	20.88792	7504
6	6424	20.93456	7504
6	6439	20.9812	7504
6	6454	21.02784	7504
6	6469	21.07448	7504
6	6484	21.12112	7504
6	6499	21.16776	7504
6	6514	21.2144	7504
6	6529	21.26104	7504
6	6544	21.30768	7504
6	6559	21.35432	7504
6	6574	21.40096	7504
6	6589	21.4476	7504
6	6604	21.49424	7504
6	6619	21.54088	7504
6	6634	21.58752	7504
6	6649	21.63416	7504
6	6664	21.6808	7504
6	6679	21.72744	7504
6	6694	21.77408	7504
6	6709	21.82072	7504
6	6724	21.86736	7504
6	6739	21.914	7504
6	6754	21.96064	7504
6	6769	22.00728	7504
6	6784	22.05392	7504
6	6799	22.10056	7504
6	6814	22.1472	7504
6	6829	22.19384	7504
6	6844	22.24048	7504
6	6859	22.28712	7504
6	6874	22.33376	7504
6	6889	22.3804	7504
6	6904	22.42704	7504
6	6919	22.47368	7504
6	6934	22.52032	7504
6	6949	22.56696	7504
6	6964	22.6136	7504
6	6979	22.66024	7504
6	6994	22.70688	7504
6	7009	22.75352	7504
6	7024	22.80016	7504
6	7039	22.8468	7504
6	7054	22.89344	7504
6	7069	22.94008	7504
6	7084	22.98672	7504
6	7099	23.03336	7504
6	7114	23.08	7504
6	7129	23.12664	7504
6	7144	23.17328	7504
6	7159	23.21992	7504
6	7174	23.26656	7504
6	7189	23.3132	7504
6	7204	23.35984	7504
6	7219	23.40648	7504
6	7234	23.45312	7504
6	7249	23.49976	7504
6	7264	23.5464	7504
6	7279	23.59304	7504
6	7294	23.63968	7504
6	7309	23.68632	7504
6	7324	23.73296	7504
6	7339	23.7796	7504
6	7354	23.82624	7504
6	7369	23.87288	7504
6	7384	23.91952	7504
6	7399	23.96616	7504
6	7414	24.0128	7504
6	7429	24.05944	7504
6	7444	24.10608	7504
6	7459	24.15272	7504
6	7474	24.19936	7504
6	7489	24.246	7504
6	7504	24.29264	7504
6	7519	24.33928	7504
6	7534	24.38592	7504
6	7549	24.43256	7504
6	7564	24.4792	7504
6	7579	24.52584	7504
6	7594	24.57248	7504
6	7609	24.61912	7504
6	7624	24.66576	7504
6	7639	24.7124	7504
6	7654	24.75904	7504
6	7669	24.80568	7504
6	7684	24.85232	7504
6	7699	24.89896	7504
6	7714	24.9456	7504
6	7729	24.99224	7504
6	7744	25.03888	7504
6	7759	25.08552	7504
6	7774	25.13216	7504
6	7789	25.1788	7504
6	7804	25.22544	7504
6	7819	25.27208	7504
6	7834	25.31872	7504
6	7849	25.36536	7504
6	7864	25.412	7504
6	7879	25.45864	7504
6	7894	25.50528	7504
6	7909	25.55192	7504
6	7924	25.59856	7504
6	7939	25.6452	7504
6	7954	25.69184	7504
6	7969	25.73848	7504
6	7984	25.78512	7504
6	7999	25.83176	7504
6	8014	25.8784	7504
6	8029	25.92504	7504
6	8044	25.97168	7504
6	8059	26.01832	7504
6	8074	26.06496	7504
6	8089	26.1116	7504
6	8104	26.15824	7504
6	8119	26.20488	7504
6	8134	26.25152	7504
6	8149	26.29816	7504
6	8164	26.3448	7504
6	8179	26.39144	7504
6	8194	26.43808	7504
6	8209	26.48472	7504
6	8224	26.53136	7504
6	8239	26.578	7504
6	8254	26.62464	7504
6	8269	26.67128	7504
6	8284	26.71792	7504
6	8299	26.76456	7504
6	8314	26.8112	7504
6	8329	26.85784	7504
6	8344	26.90448	7504
6	8359	26.95112	7504
6	8374	26.99776	7504
6	8389	27.0444	7504
6	8404	27.09104	7504
6	8419	27.13768	7504
6	8434	27.18432	7504
6	8449	27.23096	7504
6	8464	27.2776	7504
6	8479	27.32424	7504
6	8494	27.37088	7504
6	8509	27.41752	7504
6	8524	27.46416	7504
6	8539	27.5108	7504
6	8554	27.55744	7504
6	8569	27.60408	7504
6	8584	27.65072	7504
6	8599	27.69736	7504
6	8614	27.744	7504
6	8629	27.79064	7504
6	8644	27.83728	7504
6	8659	27.88392	7504
6	8674	27.93056	7504
6	8689	27.9772	7504
6	8704	28.02384	7504
6	8719	28.07048	7504
6	8734	28.11712	7504
6	8749	28.16376	7504
6	8764	28.2104	7504
6	8779	28.25704	7504
6	8794	28.30368	7504
6	8809	28.35032	7504
6	8824	28.39696	7504
6	8839	28.4436	7504
6	8854	28.49024	7504
6	8869	28.53688	7504
6	8884	28.58352	7504
6	8899	28.63016	7504
6	8914	28.6768	7504
6	8929	28.72344	7504
6	8944	28.77008	7504
6	8959	28.81672	7504
6	8974	28.86336	7504
6	8989	28.91	7504
6	9004	28.95664	7504
6	9019	29.00328	7504
6	9034	29.04992	7504
6	9049	29.09656	7504
6	9064	29.1432	7504
6	9079	29.18984	7504
6	9094	29.23648	7504
6	9109	29.28312	7504
6	9124	29.32976	7504
6	9139	29.3764	7504
6	9154	29.42304	7504
6	9169	29.46968	7504
6	9184	29.51632	7504
6	9199	29.56296	7504
6	9214	29.6096	7504
6	9229	29.65624	7504
6	9244	29.70288	7504
6	9259	29.74952	7504
6	9274	29.79616	7504
6	9289	29.8428	7504
6	9304	29.88944	7504
6	9319	29.93608	7504
6	9334	29.98272	7504
6	9349	30.02936	7504
6	9364	30.076	7504
6	9379	30.12264	7504
6	9394	30.16928	7504
6	9409	30.21592	7504
6	9424	30.26256	7504
6	9439	30.3092	7504
6	9454	30.35584	7504
6	9469	30.40248	7504
6	9484	30.44912	7504
6	9499	30.49576	7504
6	9514	30.5424	7504
6	9529	30.58904	7504
6	9544	30.63568	7504
6	9559	30.68232	7504
6	9574	30.72896	7504
6	9589	30.7756	7504
6	9604	30.82224	7504
6	9619	30.86888	7504
6	9634	30.91552	7504
6	9649	30.96216	7504
6	9664	31.0088	7504
6	9679	31.05544	7504
6	9694	31.10208	7504
6	9709	31.14872	7504
6	9724	31.19536	7504
6	9739	31.242	7504
6	9754	31.28864	7504
6	9769	31.33528	7504
6	9784	31.38192	7504
6	9799	31.42856	7504
6	9814	31.4752	7504
6	9829	31.52184	7504
6	9844	31.56848	7504
6	9859	31.61512	7504
6	9874	31.66176	7504
6	9889	31.7084	7504
6	9904	31.75504	7504
6	9919	31.80168	7504
6	9934	31.84832	7504
6	9949	31.89496	7504
6	9964	31.9416	7504
6	9979	31.98824	7504
6	9994	32.03488	7504
6	10009	32.08152	7504
6	10024	32.12816	7504
6	10039	32.1748	7504
6	10054	32.22144	7504
6	10069	32.26808	7504
6	10084	32.31472	7504
6	10099	32.36136	7504
6	10114	32.408	7504
6	10129	32.45464	7504
6	10144	32.50128	7504
6	10159	32.54792	7504
6	10174	32.59456	7504
6	10189	32.6412	7504
6	10204	32.68784	7504
6	10219	32.73448	7504
6	10234	32.78112	7504
6	10249	32.82776	7504
6	10264	32.8744	7504
6	10279	32.92104	7504
6	10294	32.96768	7504
6	10309	33.01432	7504
6	10324	33.06096	7504
6	10339	33.1076	7504
6	10354	33.15424	7504
6	10369	33.20088	7504
6	10384	33.24752	7504
6	10399	33.29416	7504
6	10414	33.3408	7504
6	10429	33.38744	7504
6	10444	33.43408	7504
6	10459	33.48072	7504
6	10474	33.52736	7504
6	10489	33.574	7504
6	10504	33.62064	7504
6	10519	33.66728	7504
6	10534	33.71392	7504
6	10549	33.76056	7504
6	10564	33.8072	7504
6	10579	33.85384	7504
6	10594	33.90048	7504
6	10609	33.94712	7504
6	10624	33.99376	7504
6	10639	34.0404	7504
6	10654	34.08704	7504
6	10669	34.13368	7504
6	10684	34.18032	7504
6	10699	34.22696	7504
6	10714	34.2736	7504
6	10729	34.32024	7504
6	10744	34.36688	7504
6	10759	34.41352	7504
6	10774	34.46016	7504
6	10789	34.5068	7504
6	10804	34.55344	7504
6	10819	34.60008	7504
6	10834	34.64672	7504
6	10849	34.69336	7504
6	10864	34.74	7504
6	10879	34.78664	7504
6	10894	34.83328	7504
6	10909	34.87992	7504
6	10924	34.92656	7504
6	10939	34.9732	7504
6	10954	35.01984	7504
6	10969	35.06648	7504
6	10984	35.11312	7504
6	10999	35.15976	7504
6	11014	35.2064	7504
6	11029	35.25304	7504
6	11044	35.29968	7504
6	11059	35.34632	7504
6	11074	35.39296	7504
6	11089	35.4396	7504
6	11104	35.48624	7504
6	11119	35.53288	7504
6	11134	35.57952	7504
6	11149	35.62616	7504
6	11164	35.6728	7504
6	11179	35.71944	7504
6	11194	35.76608	7504
6	11209	35.81272	7504
6	11224	35.85936	7504
6	11239	35.906	7504
6	11254	35.95264	7504
6	11269	35.99928	7504
6	11284	36.04592	7504
6	11299	36.09256	7504
6	11314	36.1392	7504
6	11329	36.18584	7504
6	11344	36.23248	7504
6	11359	36.27912	7504
6	11374	36.32576	7504
6	11389	36.3724	7504
6	11404	36.41904	7504
6	11419	36.46568	7504
6	11434	36.51232	7504
6	11449	36.55896	7504
6	11464	36.6056	7504
6	11479	36.65224	7504
6	11494	36.69888	7504
6	11509	36.74552	7504
6	11524	36.79216	7504
6	11539	36.8388	7504
6	11554	36.88544	7504
6	11569	36.93208	7504
6	11584	36.97872	7504
6	11599	37.02536	7504
6	11614	37.072	7504
6	11629	37.11864	7504
6	11644	37.16528	7504
6	11659	37.21192	7504
6	11674	37.25856	7504
6	11689	37.3052	7504
6	11704	37.35184	7504
6	11719	37.39848	7504
6	11734	37.44512	7504
6	11749	37.49176	7504
6	11764	37.5384	7504
6	11779	37.58504	7504
6	11794	37.63168	7504
6	11809	37.67832	7504
6	11824	37.72496	7504
6	11839	37.7716	7504
6	11854	37.81824	7504
6	11869	37.86488	7504
6	11884	37.91152	7504
6	11899	37.95816	7504
6	11914	38.0048	7504
6	11929	38.05144	7504
6	11944	38.09808	7504
6	11959	38.14472	7504
6	11974	38.19136	7504
6	11989	38.238	7504
6	12004	38.28464	7504
6	12019	38.33128	7504
6	12034	38.37792	7504
6	12049	38.42456	7504
6	12064	38.4712	7504
6	12079	38.51784	7504
6	12094	38.56448	7504
6	12109	38.61112	7504
6	12124	38.65776	7504
6	12139	38.7044	7504
6	12154	38.75104	7504
6	12169	38.79768	7504
6	12184	38.84432	7504
6	12199	38.89096	7504
6	12214	38.9376	7504
6	12229	38.98424	7504
6	12244	39.03088	7504
6	12259	39.07752	7504
6	12274	39.12416	7504
6	12289	39.1708	7504
6	12304	39.21744	7504
6	12319	39.26408	7504
6	12334	39.31072	7504
6	12349	39.35736	7504
6	12364	39.404	7504
6	12379	39.45064	7504
6	12394	39.49728	7504
6	12409	39.54392	7504
6	12424	39.59056	7504
6	12439	39.6372	7504
6	12454	39.68384	7504
6	12469	39.73048	7504
6	12484	39.77712	7504
6	12499	39.82376	7504
6	12514	39.8704	7504
6	12529	39.91704	7504
6	12544	39.96368	7504
6	12559	40.01032	7504
6	12574	40.05696	7504
6	12589	40.1036	7504
6	12604	40.15024	7504
6	12619	40.19688	7504
6	12634	40.24352	7504
6	12649	40.29016	7504
6	12664	40.3368	7504
6	12679	40.38344	7504
6	12694	40.43008	7504
6	12709	40.47672	7504
6	12724	40.52336	7504
6	12739	40.57	7504
6	12754	40.61664	7504
6	12769	40.66328	7504
6	12784	40.70992	7504
6	12799	40.75656	7504
6	12814	40.8032	7504
6	12829	40.84984	7504
6	12844	40.89648	7504
6	12859	40.94312	7504
6	12874	40.98976	7504
6	12889	41.0364	7504
6	12904	41.08304	7504
6	12919	41.12968	7504
6	12934	41.17632	7504
6	12949	41.22296	7504
6	12964	41.2696	7504
6	12979	41.31624	7504
6	12994	41.36288	7504
6	13009	41.40952	7504
6	13024	41.45616	7504
6	13039	41.5028	7504
6	13054	41.54944	7504
6	13069	41.59608	7504
6	13084	41.64272	7504
6	13099	41.68936	7504
6	13114	41.736	7504
6	13129	41.78264	7504
6	13144	41.82928	7504
6	13159	41.87592	7504
6	13174	41.92256	7504
6	13189	41.9692	7504
6	13204	42.01584	7504
6	13219	42.06248	7504
6	13234	42.10912	7504
6	13249	42.15576	7504
6	13264	42.2024	7504
6	13279	42.24904	7504
6	13294	42.29568	7504
6	13309	42.34232	7504
6	13324	42.38896	7504
6	13339	42.4356	7504
6	13354	42.48224	7504
6	13369	42.52888	7504
6	13384	42.57552	7504
6	13399	42.62216	7504
6	13414	42.6688	7504
6	13429	42.71544	7504
6	13444	42.76208	7504
6	13459	42.80872	7504
6	13474	42.85536	7504
6	13489	42.902	7504
6	13504	42.94864	7504
6	13519	42.99528	7504
6	13534	43.04192	7504
6	13549	43.08856	7504
6	13564	43.1352	7504
6	13579	43.18184	7504
6	13594	43.22848	7504
6	13609	43.27512	7504
6	13624	43.32176	7504
6	13639	43.3684	7504
6	13654	43.41504	7504
6	13669	43.46168	7504
6	13684	43.50832	7504
6	13699	43.55496	7504
6	13714	43.6016	7504
6	13729	43.64824	7504
6	13744	43.69488	7504
6	13759	43.74152	7504
6	13774	43.78816	7504
6	13789	43.8348	7504
6	13804	43.88144	7504
6	13819	43.92808	7504
6	13834	43.97472	7504
6	13849	44.02136	7504
6	13864	44.068	7504
6	13879	44.11464	7504
6	13894	44.16128	7504
6	13909	44.20792	7504
6	13924	44.25456	7504
6	13939	44.3012	7504
6	13954	44.34784	7504
6	13969	44.39448	7504
6	13984	44.44112	7504
6	13999	44.48776	7504
6	14014	44.5344	7504
6	14029	44.58104	7504
6	14044	44.62768	7504
6	14059	44.67432	7504
6	14074	44.72096	7504
6	14089	44.7676	7504
6	14104	44.81424	7504
6	14119	44.86088	7504
6	14134	44.90752	7504
6	14149	44.95416	7504
6	14164	45.0008	7504
6	14179	45.04744	7504
6	14194	45.09408	7504
6	14209	45.14072	7504
6	14224	45.18736	7504
6	14239	45.234	7504
6	14254	45.28064	7504
6	14269	45.32728	7504
6	14284	45.37392	7504
6	14299	45.42056	7504
6	14314	45.4672	7504
6	14329	45.51384	7504
6	14344	45.56048	7504
6	14359	45.60712	7504
6	14374	45.65376	7504
6	14389	45.7004	7504
6	14404	45.74704	7504
6	14419	45.79368	7504
6	14434	45.84032	7504
6	14449	45.88696	7504
6	14464	45.9336	7504
6	14479	45.98024	7504
6	14494	46.02688	7504
6	14509	46.07352	7504
6	14524	46.12016	7504
6	14539	46.1668	7504
6	14554	46.21344	7504
6	14569	46.26008	7504
6	14584	46.30672	7504
6	14599	46.35336	7504
6	14614	46.4	7504
6	14629	46.44664	7504
6	14644	46.49328	7504
6	14659	46.53992	7504
6	14674	46.58656	7504
6	14689	46.6332	7504
6	14704	46.67984	7504
6	14719	46.72648	7504
6	14734	46.77312	7504
6	14749	46.81976	7504
6	14764	46.8664	7504
6	14779	46.91304	7504
6	14794	46.95968	7504
6	14809	47.00632	7504
6	14824	47.05296	7504
6	14839	47.0996	7504
6	14854	47.14624	7504
6	14869	47.19288	7504
6	14884	47.23952	7504
6	14899	47.28616	7504
6	14914	47.3328	7504
6	14929	47.37944	7504
6	14944	47.42608	7504
6	14959	47.47272	7504
6	14974	47.51936	7504
6	14989	47.566	7504
6	15004	47.61264	7504
6	15019	47.65928	7504
6	15034	47.70592	7504
6	15049	47.75256	7504
6	15064	47.7992	7504
6	15079	47.84584	7504
6	15094	47.89248	7504
6	15109	47.93912	7504
6	15124	47.98576	7504
6	15139	48.0324	7504
6	15154	48.07904	7504
6	15169	48.12568	7504
6	15184	48.17232	7504
6	15199	48.21896	7504
6	15214	48.2656	7504
6	15229	48.31224	7504
6	15244	48.35888	7504
6	15259	48.40552	7504
6	15274	48.45216	7504
6	15289	48.4988	7504
6	15304	48.54544	7504
6	15319	48.59208	7504
6	15334	48.63872	7504
6	15349	48.68536	7504
6	15364	48.732	7504
6	15379	48.77864	7504
6	15394	48.82528	7504
6	15409	48.87192	7504
6	15424	48.91856	7504
6	15439	48.9652	7504
6	15454	49.01184	7504
6	15469	49.05848	7504
6	15484	49.10512	7504
6	15499	49.15176	7504
6	15514	49.1984	7504
6	15529	49.24504	7504
6	15544	49.29168	7504
6	15559	49.33832	7504
6	15574	49.38496	7504
6	15589	49.4316	7504
6	15604	49.47824	7504
6	15619	49.52488	7504
6	15634	49.57152	7504
6	15649	49.61816	7504
6	15664	49.6648	7504
6	15679	49.71144	7504
6	15694	49.75808	7504
6	15709	49.80472	7504
6	15724	49.85136	7504
6	15739	49.898	7504
6	15754	49.94464	7504
6	15769	49.99128	7504
5	3	1	7504
5	17	1.04816	263524
5	17	1.04816	263524
5	21	1.04816	263524
5	52	1.16208	264060
5	70	1.25248	264596
5	87	1.29912	265132
5	104	1.34576	265668
5	121	1.3924	266204
5	138	1.43904	266740
5	155	1.48568	267276
5	172	1.53232	267812
5	189	1.57896	268348
5	206	1.6256	268884
5	223	1.67224	269420
5	240	1.71888	269956
5	257	1.76552	270492
5	274	1.81216	271028
5	289	1.8588	271564
5	304	1.90544	272100
5	319	1.95208	272636
5	334	1.99872	273172
5	349	2.04536	273708
5	364	2.092	274244
5	379	2.13864	274780
5	394	2.18528	275316
5	409	2.23192	275852
5	424	2.27856	276388
5	439	2.3252	276924
5	454	2.37184	277460
5	469	2.41848	277996
5	484	2.46512	278532
5	499	2.51176	279068
5	514	2.5584	279604
5	529	2.60504	280140
5	544	2.65168	280676
5	559	2.69832	281212
5	574	2.74496	281748
5	589	2.7916	282284
5	604	2.83824	282820
5	619	2.88488	283356
5	634	2.93152	283892
5	649	2.97816	284428
5	664	3.0248	284964
5	679	3.07144	285500
5	694	3.11808	286036
5	709	3.16472	286572
5	724	3.21136	287108
5	739	3.258	287644
5	754	3.30464	288180
5	769	3.35128	288716
5	784	3.39792	289252
5	799	3.44456	289788
5	814	3.4912	290324
5	829	3.53784	290860
5	844	3.58448	291396
5	859	3.63112	291932
5	874	3.67776	292468
5	889	3.7244	293004
5	904	3.77104	293540
5	919	3.81768	294076
5	934	3.86432	294612
5	949	3.91096	295148
5	964	3.9576	295684
5	979	4.00424	296220
5	994	4.05088	296756
5	1009	4.09752	297292
5	1024	4.14416	297828
5	1039	4.1908	298364
5	1054	4.23744	298900
5	1069	4.28408	299436
5	1084	4.33072	299972
5	1099	4.37736	300508
5	1114	4.424	301044
5	1129	4.47064	301580
5	1144	4.51728	302116
5	1159	4.56392	302652
5	1174	4.61056	303188
5	1189	4.6572	303724
5	1204	4.70384	304260
5	1219	4.75048	304796
5	1234	4.79712	305332
5	1249	4.84376	305868
5	1264	4.8904	306404
5	1279	4.93704	306940
5	1294	4.98368	307476
5	1309	5.03032	308012
5	1324	5.07696	308548
5	1339	5.1236	309084
5	1354	5.17024	309620
5	1369	5.21688	310156
5	1384	5.26352	310692
5	1399	5.31016	311228
5	1414	5.3568	311764
5	1429	5.40344	312300
5	1444	5.45008	312836
5	1459	5.49672	313372
5	1474	5.54336	313908
5	1489	5.59	314444
5	1504	5.63664	314980
5	1519	5.68328	315516
5	1534	5.72992	316052
5	1549	5.77656	316588
5	1564	5.8232	317124
5	1579	5.86984	317660
5	1594	5.91648	318196
5	1609	5.96312	318732
5	1624	6.00976	319268
5	1639	6.0564	319804
5	1654	6.10304	320340
5	1669	6.14968	320876
5	1684	6.19632	321412
5	1699	6.24296	321948
5	1714	6.2896	322484
5	1729	6.33624	323020
5	1744	6.38288	323556
5	1759	6.42952	324092
5	1774	6.47616	324628
5	1789	6.5228	325164
5	1804	6.56944	325700
5	1819	6.61608	326236
5	1834	6.66272	326772
5	1849	6.70936	327308
5	1864	6.756	327844
5	1879	6.80264	328380
5	1894	6.84928	328916
5	1909	6.89592	329452
5	1924	6.94256	329988
5	1939	6.9892	330524
5	1954	7.03584	331060
5	1969	7.08248	331596
5	1984	7.12912	332132
5	1999	7.17576	332668
5	2014	7.2224	333204
5	2029	7.26904	333740
5	2044	7.31568	334276
5	2059	7.36232	334812
5	2074	7.40896	335348
5	2089	7.4556	335884
5	2104	7.50224	336420
5	2119	7.54888	336956
5	2134	7.59552	337492
5	2149	7.64216	338028
5	2164	7.6888	338564
5	2179	7.73544	339100
5	2194	7.78208	339636
5	2209	7.82872	340172
5	2224	7.87536	340708
5	2239	7.922	341244
5	2254	7.96864	341780
5	2269	8.01528	342316
5	2284	8.06192	342852
5	2299	8.10856	343388
5	2314	8.1552	343924
5	2329	8.20184	344460
5	2344	8.24848	344996
5	2359	8.29512	345532
5	2374	8.34176	346068
5	2389	8.3884	346604
5	2404	8.43504	347140
5	2419	8.48168	347676
5	2434	8.52832	348212
5	2449	8.57496	348748
5	2464	8.6216	349284
5	2479	8.66824	349820
5	2494	8.71488	350356
5	2509	8.76152	350892
5	2524	8.80816	351428
5	2539	8.8548	351964
5	2554	8.90144	352500
5	2569	8.94808	353036
5	2584	8.99472	353572
5	2599	9.04136	354108
5	2614	9.088	354644
5	2629	9.13464	355180
5	2644	9.18128	355716
5	2659	9.22792	356252
5	2674	9.27456	356788
5	2689	9.3212	357324
5	2704	9.36784	357860
5	2719	9.41448	358396
5	2734	9.46112	358932
5	2749	9.50776	359468
5	2764	9.5544	360004
5	2779	9.60104	360540
5	2794	9.64768	361076
5	2809	9.69432	361612
5	2824	9.74096	362148
5	2839	9.7876	362684
5	2854	9.83424	363220
5	2869	9.88088	363756
5	2884	9.92752	364292
5	2899	9.97416	364828
5	2914	10.0208	365364
5	2929	10.06744	365900
5	2944	10.11408	366436
5	2959	10.16072	366972
5	2974	10.20736	367508
5	2989	10.254	368044
5	3004	10.30064	368580
5	3019	10.34728	369116
5	3034	10.39392	369652
5	3049	10.44056	370188
5	3064	10.4872	370724
5	3079	10.53384	371260
5	3094	10.58048	371796
5	3109	10.62712	372332
5	3124	10.67376	372868
5	3139	10.7204	373404
5	3154	10.76704	373940
5	3169	10.81368	374476
5	3184	10.86032	375012
5	3199	10.90696	375548
5	3214	10.9536	376084
5	3229	11.00024	376620
5	3244	11.04688	377156
5	3259	11.09352	377692
5	3274	11.14016	378228
5	3289	11.1868	378764
5	3304	11.23344	379300
5	3319	11.28008	379836
5	3334	11.32672	380372
5	3349	11.37336	380908
5	3364	11.42	381444
5	3379	11.46664	381980
5	3394	11.51328	382516
5	3409	11.55992	383052
5	3424	11.60656	383588
5	3439	11.6532	384124
5	3454	11.69984	384660
5	3469	11.74648	385196
5	3484	11.79312	385732
5	3499	11.83976	386268
5	3514	11.8864	386804
5	3529	11.93304	387340
5	3544	11.97968	387876
5	3559	12.02632	388412
5	3574	12.07296	388948
5	3589	12.1196	389484
5	3604	12.16624	390020
5	3619	12.21288	390556
5	3634	12.25952	391092
5	3649	12.30616	391628
5	3664	12.3528	392164
5	3679	12.39944	392700
5	3694	12.44608	393236
5	3709	12.49272	393772
5	3724	12.53936	394308
5	3739	12.586	394844
5	3754	12.63264	395380
5	3769	12.67928	395916
5	3784	12.72592	396452
5	3799	12.77256	396988
5	3814	12.8192	397524
5	3829	12.86584	398060
5	3844	12.91248	398596
5	3859	12.95912	399132
5	3874	13.00576	399668
5	3889	13.0524	400204
5	3904	13.09904	400740
5	3919	13.14568	401276
5	3934	13.19232	401812
5	3949	13.23896	402348
5	3964	13.2856	402884
5	3979	13.33224	403420
5	3994	13.37888	403956
5	4009	13.42552	404492
5	4024	13.47216	405028
5	4039	13.5188	405564
5	4054	13.56544	406100
5	4069	13.61208	406636
5	4084	13.65872	407172
5	4099	13.70536	407708
5	4114	13.752	408244
5	4129	13.79864	408780
5	4144	13.84528	409316
5	4159	13.89192	409852
5	4174	13.93856	410388
5	4189	13.9852	410924
5	4204	14.03184	411460
5	4219	14.07848	411996
5	4234	14.12512	412532
5	4249	14.17176	413068
5	4264	14.2184	413604
5	4279	14.26504	414140
5	4294	14.31168	414676
5	4309	14.35832	415212
5	4324	14.40496	415748
5	4339	14.4516	416284
5	4354	14.49824	416820
5	4369	14.54488	417356
5	4384	14.59152	417892
5	4399	14.63816	418428
5	4414	14.6848	418964
5	4429	14.73144	419500
5	4444	14.77808	420036
5	4459	14.82472	420572
5	4474	14.87136	421108
5	4489	14.918	421644
5	4504	14.96464	422180
5	4519	15.01128	422716
5	4534	15.05792	423252
5	4549	15.10456	423788
5	4564	15.1512	424324
5	4579	15.19784	424860
5	4594	15.24448	425396
5	4609	15.29112	425932
5	4624	15.33776	426468
5	4639	15.3844	427004
5	4654	15.43104	427540
5	4669	15.47768	428076
5	4684	15.52432	428612
5	4699	15.57096	429148
5	4714	15.6176	429684
5	4729	15.66424	430220
5	4744	15.71088	430756
5	4759	15.75752	431292
5	4774	15.80416	431828
5	4789	15.8508	432364
5	4804	15.89744	432900
5	4819	15.94408	433436
5	4834	15.99072	433972
5	4849	16.03736	434508
5	4864	16.084	435044
5	4879	16.13064	435580
5	4894	16.17728	436116
5	4909	16.22392	436652
5	4924	16.27056	437188
5	4939	16.3172	437724
5	4954	16.36384	438260
5	4969	16.41048	438796
5	4984	16.45712	439332
5	4999	16.50376	439868
5	5014	16.5504	440404
5	5029	16.59704	440940
5	5044	16.64368	441476
5	5059	16.69032	442012
5	5074	16.73696	442548
5	5089	16.7836	443084
5	5104	16.83024	443620
5	5119	16.87688	444156
5	5134	16.92352	444692
5	5149	16.97016	445228
5	5164	17.0168	445764
5	5179	17.06344	446300
5	5194	17.11008	446836
5	5209	17.15672	447372
5	5224	17.20336	447908
5	5239	17.25	448444
5	5254	17.29664	448980
5	5269	17.34328	449516
5	5284	17.38992	450052
5	5299	17.43656	450588
5	5314	17.4832	451124
5	5329	17.52984	451660
5	5344	17.57648	452196
5	5359	17.62312	452732
5	5374	17.66976	453268
5	5389	17.7164	453804
5	5404	17.76304	454340
5	5419	17.80968	454876
5	5434	17.85632	455412
5	5449	17.90296	455948
5	5464	17.9496	456484
5	5479	17.99624	457020
5	5494	18.04288	457556
5	5509	18.08952	458092
5	5524	18.13616	458628
5	5539	18.1828	459164
5	5554	18.22944	459700
5	5569	18.27608	460236
5	5584	18.32272	460772
5	5599	18.36936	461308
5	5614	18.416	461844
5	5629	18.46264	462380
5	5644	18.50928	462916
5	5659	18.55592	463452
5	5674	18.60256	463988
5	5689	18.6492	464524
5	5704	18.69584	465060
5	5719	18.74248	465596
5	5734	18.78912	466132
5	5749	18.83576	466668
5	5764	18.8824	467204
5	5779	18.92904	467740
5	5794	18.97568	468276
5	5809	19.02232	468812
5	5824	19.06896	469348
5	5839	19.1156	469884
5	5854	19.16224	470420
5	5869	19.20888	470956
5	5884	19.25552	471492
5	5899	19.30216	472028
5	5914	19.3488	472564
5	5929	19.39544	473100
5	5944	19.44208	473636
5	5959	19.48872	474172
5	5974	19.53536	474708
5	5989	19.582	475244
5	6004	19.62864	475780
5	6019	19.67528	476316
5	6034	19.72192	476852
5	6049	19.76856	477388
5	6064	19.8152	477924
5	6079	19.86184	478460
5	6094	19.90848	478996
5	6109	19.95512	479532
5	6124	20.00176	480068
5	6139	20.0484	480604
5	6154	20.09504	481140
5	6169	20.14168	481676
5	6184	20.18832	482212
5	6199	20.23496	482748
5	6214	20.2816	483284
5	6229	20.32824	483820
5	6244	20.37488	484356
5	6259	20.42152	484892
5	6274	20.46816	485428
5	6289	20.5148	485964
5	6304	20.56144	486500
5	6319	20.60808	487036
5	6334	20.65472	487572
5	6349	20.70136	488108
5	6364	20.748	488644
5	6379	20.79464	489180
5	6394	20.84128	489716
5	6409	20.88792	490252
5	6424	20.93456	490788
5	6439	20.9812	491324
5	6454	21.02784	491860
5	6469	21.07448	492396
5	6484	21.12112	492932
5	6499	21.16776	493468
5	6514	21.2144	494004
5	6529	21.26104	494540
5	6544	21.30768	495076
5	6559	21.35432	495612
5	6574	21.40096	496148
5	6589	21.4476	496684
5	6604	21.49424	497220
5	6619	21.54088	497756
5	6634	21.58752	498292
5	6649	21.63416	498828
5	6664	21.6808	499364
5	6679	21.72744	499900
5	6694	21.77408	500436
5	6709	21.82072	500972
5	6724	21.86736	501508
5	6739	21.914	502044
5	6754	21.96064	502580
5	6769	22.00728	503116
5	6784	22.05392	503652
5	6799	22.10056	504188
5	6814	22.1472	504724
5	6829	22.19384	505260
5	6844	22.24048	505796
5	6859	22.28712	506332
5	6874	22.33376	506868
5	6889	22.3804	507404
5	6904	22.42704	507940
5	6919	22.47368	508476
5	6934	22.52032	509012
5	6949	22.56696	509548
5	6964	22.6136	510084
5	6979	22.66024	510620
5	6994	22.70688	511156
5	7009	22.75352	511692
5	7024	22.80016	512228
5	7039	22.8468	512764
5	7054	22.89344	513300
5	7069	22.94008	513836
5	7084	22.98672	514372
5	7099	23.03336	514908
5	7114	23.08	515444
5	7129	23.12664	515980
5	7144	23.17328	516516
5	7159	23.21992	517052
5	7174	23.26656	517588
5	7189	23.3132	518124
5	7204	23.35984	518660
5	7219	23.40648	519196
5	7234	23.45312	519732
5	7249	23.49976	520268
5	7264	23.5464	520804
5	7279	23.59304	521340
5	7294	23.63968	521876
5	7309	23.68632	522412
5	7324	23.73296	522948
5	7339	23.7796	523484
5	7354	23.82624	524020
5	7369	23.87288	524556
5	7384	23.91952	525092
5	7399	23.96616	525628
5	7414	24.0128	526164
5	7429	24.05944	526700
5	7444	24.10608	527236
5	7459	24.15272	527772
5	7474	24.19936	528308
5	7489	24.246	528844
5	7504	24.29264	529380
5	7519	24.33928	529916
5	7534	24.38592	530452
5	7549	24.43256	530988
5	7564	24.4792	531524
5	7579	24.52584	532060
5	7594	24.57248	532596
5	7609	24.61912	533132
5	7624	24.66576	533668
5	7639	24.7124	534204
5	7654	24.75904	534740
5	7669	24.80568	535276
5	7684	24.85232	535812
5	7699	24.89896	536348
5	7714	24.9456	536884
5	7729	24.99224	537420
5	7744	25.03888	537956
5	7759	25.08552	538492
5	7774	25.13216	539028
5	7789	25.1788	539564
5	7804	25.22544	540100
5	7819	25.27208	540636
5	7834	25.31872	541172
5	7849	25.36536	541708
5	7864	25.412	542244
5	7879	25.45864	542780
5	7894	25.50528	543316
5	7909	25.55192	543852
5	7924	25.59856	544388
5	7939	25.6452	544924
5	7954	25.69184	545460
5	7969	25.73848	545996
5	7984	25.78512	546532
5	7999	25.83176	547068
5	8014	25.8784	547604
5	8029	25.92504	548140
5	8044	25.97168	548676
5	8059	26.01832	549212
5	8074	26.06496	549748
5	8089	26.1116	550284
5	8104	26.15824	550820
5	8119	26.20488	551356
5	8134	26.25152	551892
5	8149	26.29816	552428
5	8164	26.3448	552964
5	8179	26.39144	553500
5	8194	26.43808	554036
5	8209	26.48472	554572
5	8224	26.53136	555108
5	8239	26.578	555644
5	8254	26.62464	556180
5	8269	26.67128	556716
5	8284	26.71792	557252
5	8299	26.76456	557788
5	8314	26.8112	558324
5	8329	26.85784	558860
5	8344	26.90448	559396
5	8359	26.95112	559932
5	8374	26.99776	560468
5	8389	27.0444	561004
5	8404	27.09104	561540
5	8419	27.13768	562076
5	8434	27.18432	562612
5	8449	27.23096	563148
5	8464	27.2776	563684
5	8479	27.32424	564220
5	8494	27.37088	564756
5	8509	27.41752	565292
5	8524	27.46416	565828
5	8539	27.5108	566364
5	8554	27.55744	566900
5	8569	27.60408	567436
5	8584	27.65072	567972
5	8599	27.69736	568508
5	8614	27.744	569044
5	8629	27.79064	569580
5	8644	27.83728	570116
5	8659	27.88392	570652
5	8674	27.93056	571188
5	8689	27.9772	571724
5	8704	28.02384	572260
5	8719	28.07048	572796
5	8734	28.11712	573332
5	8749	28.16376	573868
5	8764	28.2104	574404
5	8779	28.25704	574940
5	8794	28.30368	575476
5	8809	28.35032	576012
5	8824	28.39696	576548
5	8839	28.4436	577084
5	8854	28.49024	577620
5	8869	28.53688	578156
5	8884	28.58352	578692
5	8899	28.63016	579228
5	8914	28.6768	579764
5	8929	28.72344	580300
5	8944	28.77008	580836
5	8959	28.81672	581372
5	8974	28.86336	581908
5	8989	28.91	582444
5	9004	28.95664	582980
5	9019	29.00328	583516
5	9034	29.04992	584052
5	9049	29.09656	584588
5	9064	29.1432	585124
5	9079	29.18984	585660
5	9094	29.23648	586196
5	9109	29.28312	586732
5	9124	29.32976	587268
5	9139	29.3764	587804
5	9154	29.42304	588340
5	9169	29.46968	588876
5	9184	29.51632	589412
5	9199	29.56296	589948
5	9214	29.6096	590484
5	9229	29.65624	591020
5	9244	29.70288	591556
5	9259	29.74952	592092
5	9274	29.79616	592628
5	9289	29.8428	593164
5	9304	29.88944	593700
5	9319	29.93608	594236
5	9334	29.98272	594772
5	9349	30.02936	595308
5	9364	30.076	595844
5	9379	30.12264	596380
5	9394	30.16928	596916
5	9409	30.21592	597452
5	9424	30.26256	597988
5	9439	30.3092	598524
5	9454	30.35584	599060
5	9469	30.40248	599596
5	9484	30.44912	600132
5	9499	30.49576	600668
5	9514	30.5424	601204
5	9529	30.58904	601740
5	9544	30.63568	602276
5	9559	30.68232	602812
5	9574	30.72896	603348
5	9589	30.7756	603884
5	9604	30.82224	604420
5	9619	30.86888	604956
5	9634	30.91552	605492
5	9649	30.96216	606028
5	9664	31.0088	606564
5	9679	31.05544	607100
5	9694	31.10208	607636
5	9709	31.14872	608172
5	9724	31.19536	608708
5	9739	31.242	609244
5	9754	31.28864	609780
5	9769	31.33528	610316
5	9784	31.38192	610852
5	9799	31.42856	611388
5	9814	31.4752	611924
5	9829	31.52184	612460
5	9844	31.56848	612996
5	9859	31.61512	613532
5	9874	31.66176	614068
5	9889	31.7084	614604
5	9904	31.75504	615140
5	9919	31.80168	615676
5	9934	31.84832	616212
5	9949	31.89496	616748
5	9964	31.9416	617284
5	9979	31.98824	617820
5	9994	32.03488	618356
5	10009	32.08152	618892
5	10024	32.12816	619428
5	10039	32.1748	619964
5	10054	32.22144	620500
5	10069	32.26808	621036
5	10084	32.31472	621572
5	10099	32.36136	622108
5	10114	32.408	622644
5	10129	32.45464	623180
5	10144	32.50128	623716
5	10159	32.54792	624252
5	10174	32.59456	624788
5	10189	32.6412	625324
5	10204	32.68784	625860
5	10219	32.73448	626396
5	10234	32.78112	626932
5	10249	32.82776	627468
5	10264	32.8744	628004
5	10279	32.92104	628540
5	10294	32.96768	629076
5	10309	33.01432	629612
5	10324	33.06096	630148
5	10339	33.1076	630684
5	10354	33.15424	631220
5	10369	33.20088	631756
5	10384	33.24752	632292
5	10399	33.29416	632828
5	10414	33.3408	633364
5	10429	33.38744	633900
5	10444	33.43408	634436
5	10459	33.48072	634972
5	10474	33.52736	635508
5	10489	33.574	636044
5	10504	33.62064	636580
5	10519	33.66728	637116
5	10534	33.71392	637652
5	10549	33.76056	638188
5	10564	33.8072	638724
5	10579	33.85384	639260
5	10594	33.90048	639796
5	10609	33.94712	640332
5	10624	33.99376	640868
5	10639	34.0404	641404
5	10654	34.08704	641940
5	10669	34.13368	642476
5	10684	34.18032	643012
5	10699	34.22696	643548
5	10714	34.2736	644084
5	10729	34.32024	644620
5	10744	34.36688	645156
5	10759	34.41352	645692
5	10774	34.46016	646228
5	10789	34.5068	646764
5	10804	34.55344	647300
5	10819	34.60008	647836
5	10834	34.64672	648372
5	10849	34.69336	648908
5	10864	34.74	649444
5	10879	34.78664	649980
5	10894	34.83328	650516
5	10909	34.87992	651052
5	10924	34.92656	651588
5	10939	34.9732	652124
5	10954	35.01984	652660
5	10969	35.06648	653196
5	10984	35.11312	653732
5	10999	35.15976	654268
5	11014	35.2064	654804
5	11029	35.25304	655340
5	11044	35.29968	655876
5	11059	35.34632	656412
5	11074	35.39296	656948
5	11089	35.4396	657484
5	11104	35.48624	658020
5	11119	35.53288	658556
5	11134	35.57952	659092
5	11149	35.62616	659628
5	11164	35.6728	660164
5	11179	35.71944	660700
5	11194	35.76608	661236
5	11209	35.81272	661772
5	11224	35.85936	662308
5	11239	35.906	662844
5	11254	35.95264	663380
5	11269	35.99928	663916
5	11284	36.04592	664452
5	11299	36.09256	664988
5	11314	36.1392	665524
5	11329	36.18584	666060
5	11344	36.23248	666596
5	11359	36.27912	667132
5	11374	36.32576	667668
5	11389	36.3724	668204
5	11404	36.41904	668740
5	11419	36.46568	669276
5	11434	36.51232	669812
5	11449	36.55896	670348
5	11464	36.6056	670884
5	11479	36.65224	671420
5	11494	36.69888	671956
5	11509	36.74552	672492
5	11524	36.79216	673028
5	11539	36.8388	673564
5	11554	36.88544	674100
5	11569	36.93208	674636
5	11584	36.97872	675172
5	11599	37.02536	675708
5	11614	37.072	676244
5	11629	37.11864	676780
5	11644	37.16528	677316
5	11659	37.21192	677852
5	11674	37.25856	678388
5	11689	37.3052	678924
5	11704	37.35184	679460
5	11719	37.39848	679996
5	11734	37.44512	680532
5	11749	37.49176	681068
5	11764	37.5384	681604
5	11779	37.58504	682140
5	11794	37.63168	682676
5	11809	37.67832	683212
5	11824	37.72496	683748
5	11839	37.7716	684284
5	11854	37.81824	684820
5	11869	37.86488	685356
5	11884	37.91152	685892
5	11899	37.95816	686428
5	11914	38.0048	686964
5	11929	38.05144	687500
5	11944	38.09808	688036
5	11959	38.14472	688572
5	11974	38.19136	689108
5	11989	38.238	689644
5	12004	38.28464	690180
5	12019	38.33128	690716
5	12034	38.37792	691252
5	12049	38.42456	691788
5	12064	38.4712	692324
5	12079	38.51784	692860
5	12094	38.56448	693396
5	12109	38.61112	693932
5	12124	38.65776	694468
5	12139	38.7044	695004
5	12154	38.75104	695540
5	12169	38.79768	696076
5	12184	38.84432	696612
5	12199	38.89096	697148
5	12214	38.9376	697684
5	12229	38.98424	698220
5	12244	39.03088	698756
5	12259	39.07752	699292
5	12274	39.12416	699828
5	12289	39.1708	700364
5	12304	39.21744	700900
5	12319	39.26408	701436
5	12334	39.31072	701972
5	12349	39.35736	702508
5	12364	39.404	703044
5	12379	39.45064	703580
5	12394	39.49728	704116
5	12409	39.54392	704652
5	12424	39.59056	705188
5	12439	39.6372	705724
5	12454	39.68384	706260
5	12469	39.73048	706796
5	12484	39.77712	707332
5	12499	39.82376	707868
5	12514	39.8704	708404
5	12529	39.91704	708940
5	12544	39.96368	709476
5	12559	40.01032	710012
5	12574	40.05696	710548
5	12589	40.1036	711084
5	12604	40.15024	711620
5	12619	40.19688	712156
5	12634	40.24352	712692
5	12649	40.29016	713228
5	12664	40.3368	713764
5	12679	40.38344	714300
5	12694	40.43008	714836
5	12709	40.47672	715372
5	12724	40.52336	715908
5	12739	40.57	716444
5	12754	40.61664	716980
5	12769	40.66328	717516
5	12784	40.70992	718052
5	12799	40.75656	718588
5	12814	40.8032	719124
5	12829	40.84984	719660
5	12844	40.89648	720196
5	12859	40.94312	720732
5	12874	40.98976	721268
5	12889	41.0364	721804
5	12904	41.08304	722340
5	12919	41.12968	722876
5	12934	41.17632	723412
5	12949	41.22296	723948
5	12964	41.2696	724484
5	12979	41.31624	725020
5	12994	41.36288	725556
5	13009	41.40952	726092
5	13024	41.45616	726628
5	13039	41.5028	727164
5	13054	41.54944	727700
5	13069	41.59608	728236
5	13084	41.64272	728772
5	13099	41.68936	729308
5	13114	41.736	729844
5	13129	41.78264	730380
5	13144	41.82928	730916
5	13159	41.87592	731452
5	13174	41.92256	731988
5	13189	41.9692	732524
5	13204	42.01584	733060
5	13219	42.06248	733596
5	13234	42.10912	734132
5	13249	42.15576	734668
5	13264	42.2024	735204
5	13279	42.24904	735740
5	13294	42.29568	736276
5	13309	42.34232	736812
5	13324	42.38896	737348
5	13339	42.4356	737884
5	13354	42.48224	738420
5	13369	42.52888	738956
5	13384	42.57552	739492
5	13399	42.62216	740028
5	13414	42.6688	740564
5	13429	42.71544	741100
5	13444	42.76208	741636
5	13459	42.80872	742172
5	13474	42.85536	742708
5	13489	42.902	743244
5	13504	42.94864	743780
5	13519	42.99528	744316
5	13534	43.04192	744852
5	13549	43.08856	745388
5	13564	43.1352	745924
5	13579	43.18184	746460
5	13594	43.22848	746996
5	13609	43.27512	747532
5	13624	43.32176	748068
5	13639	43.3684	748604
5	13654	43.41504	749140
5	13669	43.46168	749676
5	13684	43.50832	750212
5	13699	43.55496	750748
5	13714	43.6016	751284
5	13729	43.64824	751820
5	13744	43.69488	752356
5	13759	43.74152	752892
5	13774	43.78816	753428
5	13789	43.8348	753964
5	13804	43.88144	754500
5	13819	43.92808	755036
5	13834	43.97472	755572
5	13849	44.02136	756108
5	13864	44.068	756644
5	13879	44.11464	757180
5	13894	44.16128	757716
5	13909	44.20792	758252
5	13924	44.25456	758788
5	13939	44.3012	759324
5	13954	44.34784	759860
5	13969	44.39448	760396
5	13984	44.44112	760932
5	13999	44.48776	761468
5	14014	44.5344	762004
5	14029	44.58104	762540
5	14044	44.62768	763076
5	14059	44.67432	763612
5	14074	44.72096	764148
5	14089	44.7676	764684
5	14104	44.81424	765220
5	14119	44.86088	765756
5	14134	44.90752	766292
5	14149	44.95416	766828
5	14164	45.0008	767364
5	14179	45.04744	767900
5	14194	45.09408	768436
5	14209	45.14072	768972
5	14224	45.18736	769508
5	14239	45.234	770044
5	14254	45.28064	770580
5	14269	45.32728	771116
5	14284	45.37392	771652
5	14299	45.42056	772188
5	14314	45.4672	772724
5	14329	45.51384	773260
5	14344	45.56048	773796
5	14359	45.60712	774332
5	14374	45.65376	774868
5	14389	45.7004	775404
5	14404	45.74704	775940
5	14419	45.79368	776476
5	14434	45.84032	777012
5	14449	45.88696	777548
5	14464	45.9336	778084
5	14479	45.98024	778620
5	14494	46.02688	779156
5	14509	46.07352	779692
5	14524	46.12016	780228
5	14539	46.1668	780764
5	14554	46.21344	781300
5	14569	46.26008	781836
5	14584	46.30672	782372
5	14599	46.35336	782908
5	14614	46.4	783444
5	14629	46.44664	783980
5	14644	46.49328	784516
5	14659	46.53992	785052
5	14674	46.58656	785588
5	14689	46.6332	786124
5	14704	46.67984	786660
5	14719	46.72648	787196
5	14734	46.77312	787732
5	14749	46.81976	788268
5	14764	46.8664	788804
5	14779	46.91304	789340
5	14794	46.95968	789876
5	14809	47.00632	790412
5	14824	47.05296	790948
5	14839	47.0996	791484
5	14854	47.14624	792020
5	14869	47.19288	792556
5	14884	47.23952	793092
5	14899	47.28616	793628
5	14914	47.3328	794164
5	14929	47.37944	794700
5	14944	47.42608	795236
5	14959	47.47272	795772
5	14974	47.51936	796308
5	14989	47.566	796844
5	15004	47.61264	797380
5	15019	47.65928	797916
5	15034	47.70592	798452
5	15049	47.75256	798988
5	15064	47.7992	799524
5	15079	47.84584	800060
5	15094	47.89248	800596
5	15109	47.93912	801132
5	15124	47.98576	801668
5	15139	48.0324	802204
5	15154	48.07904	802740
5	15169	48.12568	803276
5	15184	48.17232	803812
5	15199	48.21896	804348
5	15214	48.2656	804884
5	15229	48.31224	805420
5	15244	48.35888	805956
5	15259	48.40552	806492
5	15274	48.45216	807028
5	15289	48.4988	807564
5	15304	48.54544	808100
5	15319	48.59208	808636
5	15334	48.63872	809172
5	15349	48.68536	809708
5	15364	48.732	810244
5	15379	48.77864	810780
5	15394	48.82528	811316
5	15409	48.87192	811852
5	15424	48.91856	812388
5	15439	48.9652	812924
5	15454	49.01184	813460
5	15469	49.05848	813996
5	15484	49.10512	814532
5	15499	49.15176	815068
5	15514	49.1984	815604
5	15529	49.24504	816140
5	15544	49.29168	816676
5	15559	49.33832	817212
5	15574	49.38496	817748
5	15589	49.4316	818284
5	15604	49.47824	818820
5	15619	49.52488	819356
5	15634	49.57152	819892
5	15649	49.61816	820428
5	15664	49.6648	820964
5	15679	49.71144	821500
5	15694	49.75808	822036
5	15709	49.80472	822572
5	15724	49.85136	823108
5	15739	49.898	823644
5	15754	49.94464	824180
5	15769	49.99128	824716
30	21	1.04816	250001
7	3	1	0
7	17	1.04816	256020
7	21	1.04816	256020
7	52	1.16208	256556
7	70	1.25248	257092
7	87	1.29912	257628
7	104	1.34576	258164
7	121	1.3924	258700
7	138	1.43904	259236
7	155	1.48568	259772
7	172	1.53232	260308
7	189	1.57896	260844
7	206	1.6256	261380
7	223	1.67224	261916
7	240	1.71888	262452
7	257	1.76552	262988
7	274	1.81216	263524
7	289	1.8588	264060
7	304	1.90544	264596
7	319	1.95208	265132
7	334	1.99872	265668
7	349	2.04536	266204
7	364	2.092	266740
7	379	2.13864	267276
7	394	2.18528	267812
7	409	2.23192	268348
7	424	2.27856	268884
7	439	2.3252	269420
7	454	2.37184	269956
7	469	2.41848	270492
7	484	2.46512	271028
7	499	2.51176	271564
7	514	2.5584	272100
7	529	2.60504	272636
7	544	2.65168	273172
7	559	2.69832	273708
7	574	2.74496	274244
7	589	2.7916	274780
7	604	2.83824	275316
7	619	2.88488	275852
7	634	2.93152	276388
7	649	2.97816	276924
7	664	3.0248	277460
7	679	3.07144	277996
7	694	3.11808	278532
7	709	3.16472	279068
7	724	3.21136	279604
7	739	3.258	280140
7	754	3.30464	280676
7	769	3.35128	281212
7	784	3.39792	281748
7	799	3.44456	282284
7	814	3.4912	282820
7	829	3.53784	283356
7	844	3.58448	283892
7	859	3.63112	284428
7	874	3.67776	284964
7	889	3.7244	285500
7	904	3.77104	286036
7	919	3.81768	286572
7	934	3.86432	287108
7	949	3.91096	287644
7	964	3.9576	288180
7	979	4.00424	288716
7	994	4.05088	289252
7	1009	4.09752	289788
7	1024	4.14416	290324
7	1039	4.1908	290860
7	1054	4.23744	291396
7	1069	4.28408	291932
7	1084	4.33072	292468
7	1099	4.37736	293004
7	1114	4.424	293540
7	1129	4.47064	294076
7	1144	4.51728	294612
7	1159	4.56392	295148
7	1174	4.61056	295684
7	1189	4.6572	296220
7	1204	4.70384	296756
7	1219	4.75048	297292
7	1234	4.79712	297828
7	1249	4.84376	298364
7	1264	4.8904	298900
7	1279	4.93704	299436
7	1294	4.98368	299972
7	1309	5.03032	300508
7	1324	5.07696	301044
7	1339	5.1236	301580
7	1354	5.17024	302116
7	1369	5.21688	302652
7	1384	5.26352	303188
7	1399	5.31016	303724
7	1414	5.3568	304260
7	1429	5.40344	304796
7	1444	5.45008	305332
7	1459	5.49672	305868
7	1474	5.54336	306404
7	1489	5.59	306940
7	1504	5.63664	307476
7	1519	5.68328	308012
7	1534	5.72992	308548
7	1549	5.77656	309084
7	1564	5.8232	309620
7	1579	5.86984	310156
7	1594	5.91648	310692
7	1609	5.96312	311228
7	1624	6.00976	311764
7	1639	6.0564	312300
7	1654	6.10304	312836
7	1669	6.14968	313372
7	1684	6.19632	313908
7	1699	6.24296	314444
7	1714	6.2896	314980
7	1729	6.33624	315516
7	1744	6.38288	316052
7	1759	6.42952	316588
7	1774	6.47616	317124
7	1789	6.5228	317660
7	1804	6.56944	318196
7	1819	6.61608	318732
7	1834	6.66272	319268
7	1849	6.70936	319804
7	1864	6.756	320340
7	1879	6.80264	320876
7	1894	6.84928	321412
7	1909	6.89592	321948
7	1924	6.94256	322484
7	1939	6.9892	323020
7	1954	7.03584	323556
7	1969	7.08248	324092
7	1984	7.12912	324628
7	1999	7.17576	325164
7	2014	7.2224	325700
7	2029	7.26904	326236
7	2044	7.31568	326772
7	2059	7.36232	327308
7	2074	7.40896	327844
7	2089	7.4556	328380
7	2104	7.50224	328916
7	2119	7.54888	329452
7	2134	7.59552	329988
7	2149	7.64216	330524
7	2164	7.6888	331060
7	2179	7.73544	331596
7	2194	7.78208	332132
7	2209	7.82872	332668
7	2224	7.87536	333204
7	2239	7.922	333740
7	2254	7.96864	334276
7	2269	8.01528	334812
7	2284	8.06192	335348
7	2299	8.10856	335884
7	2314	8.1552	336420
7	2329	8.20184	336956
7	2344	8.24848	337492
7	2359	8.29512	338028
7	2374	8.34176	338564
7	2389	8.3884	339100
7	2404	8.43504	339636
7	2419	8.48168	340172
7	2434	8.52832	340708
7	2449	8.57496	341244
7	2464	8.6216	341780
7	2479	8.66824	342316
7	2494	8.71488	342852
7	2509	8.76152	343388
7	2524	8.80816	343924
7	2539	8.8548	344460
7	2554	8.90144	344996
7	2569	8.94808	345532
7	2584	8.99472	346068
7	2599	9.04136	346604
7	2614	9.088	347140
7	2629	9.13464	347676
7	2644	9.18128	348212
7	2659	9.22792	348748
7	2674	9.27456	349284
7	2689	9.3212	349820
7	2704	9.36784	350356
7	2719	9.41448	350892
7	2734	9.46112	351428
7	2749	9.50776	351964
7	2764	9.5544	352500
7	2779	9.60104	353036
7	2794	9.64768	353572
7	2809	9.69432	354108
7	2824	9.74096	354644
7	2839	9.7876	355180
7	2854	9.83424	355716
7	2869	9.88088	356252
7	2884	9.92752	356788
7	2899	9.97416	357324
7	2914	10.0208	357860
7	2929	10.06744	358396
7	2944	10.11408	358932
7	2959	10.16072	359468
7	2974	10.20736	360004
7	2989	10.254	360540
7	3004	10.30064	361076
7	3019	10.34728	361612
7	3034	10.39392	362148
7	3049	10.44056	362684
7	3064	10.4872	363220
7	3079	10.53384	363756
7	3094	10.58048	364292
7	3109	10.62712	364828
7	3124	10.67376	365364
7	3139	10.7204	365900
7	3154	10.76704	366436
7	3169	10.81368	366972
7	3184	10.86032	367508
7	3199	10.90696	368044
7	3214	10.9536	368580
7	3229	11.00024	369116
7	3244	11.04688	369652
7	3259	11.09352	370188
7	3274	11.14016	370724
7	3289	11.1868	371260
7	3304	11.23344	371796
7	3319	11.28008	372332
7	3334	11.32672	372868
7	3349	11.37336	373404
7	3364	11.42	373940
7	3379	11.46664	374476
7	3394	11.51328	375012
7	3409	11.55992	375548
7	3424	11.60656	376084
7	3439	11.6532	376620
7	3454	11.69984	377156
7	3469	11.74648	377692
7	3484	11.79312	378228
7	3499	11.83976	378764
7	3514	11.8864	379300
7	3529	11.93304	379836
7	3544	11.97968	380372
7	3559	12.02632	380908
7	3574	12.07296	381444
7	3589	12.1196	381980
7	3604	12.16624	382516
7	3619	12.21288	383052
7	3634	12.25952	383588
7	3649	12.30616	384124
7	3664	12.3528	384660
7	3679	12.39944	385196
7	3694	12.44608	385732
7	3709	12.49272	386268
7	3724	12.53936	386804
7	3739	12.586	387340
7	3754	12.63264	387876
7	3769	12.67928	388412
7	3784	12.72592	388948
7	3799	12.77256	389484
7	3814	12.8192	390020
7	3829	12.86584	390556
7	3844	12.91248	391092
7	3859	12.95912	391628
7	3874	13.00576	392164
7	3889	13.0524	392700
7	3904	13.09904	393236
7	3919	13.14568	393772
7	3934	13.19232	394308
7	3949	13.23896	394844
7	3964	13.2856	395380
7	3979	13.33224	395916
7	3994	13.37888	396452
7	4009	13.42552	396988
7	4024	13.47216	397524
7	4039	13.5188	398060
7	4054	13.56544	398596
7	4069	13.61208	399132
7	4084	13.65872	399668
7	4099	13.70536	400204
7	4114	13.752	400740
7	4129	13.79864	401276
7	4144	13.84528	401812
7	4159	13.89192	402348
7	4174	13.93856	402884
7	4189	13.9852	403420
7	4204	14.03184	403956
7	4219	14.07848	404492
7	4234	14.12512	405028
7	4249	14.17176	405564
7	4264	14.2184	406100
7	4279	14.26504	406636
7	4294	14.31168	407172
7	4309	14.35832	407708
7	4324	14.40496	408244
7	4339	14.4516	408780
7	4354	14.49824	409316
7	4369	14.54488	409852
7	4384	14.59152	410388
7	4399	14.63816	410924
7	4414	14.6848	411460
7	4429	14.73144	411996
7	4444	14.77808	412532
7	4459	14.82472	413068
7	4474	14.87136	413604
7	4489	14.918	414140
7	4504	14.96464	414676
7	4519	15.01128	415212
7	4534	15.05792	415748
7	4549	15.10456	416284
7	4564	15.1512	416820
7	4579	15.19784	417356
7	4594	15.24448	417892
7	4609	15.29112	418428
7	4624	15.33776	418964
7	4639	15.3844	419500
7	4654	15.43104	420036
7	4669	15.47768	420572
7	4684	15.52432	421108
7	4699	15.57096	421644
7	4714	15.6176	422180
7	4729	15.66424	422716
7	4744	15.71088	423252
7	4759	15.75752	423788
7	4774	15.80416	424324
7	4789	15.8508	424860
7	4804	15.89744	425396
7	4819	15.94408	425932
7	4834	15.99072	426468
7	4849	16.03736	427004
7	4864	16.084	427540
7	4879	16.13064	428076
7	4894	16.17728	428612
7	4909	16.22392	429148
7	4924	16.27056	429684
7	4939	16.3172	430220
7	4954	16.36384	430756
7	4969	16.41048	431292
7	4984	16.45712	431828
7	4999	16.50376	432364
7	5014	16.5504	432900
7	5029	16.59704	433436
7	5044	16.64368	433972
7	5059	16.69032	434508
7	5074	16.73696	435044
7	5089	16.7836	435580
7	5104	16.83024	436116
7	5119	16.87688	436652
7	5134	16.92352	437188
7	5149	16.97016	437724
7	5164	17.0168	438260
7	5179	17.06344	438796
7	5194	17.11008	439332
7	5209	17.15672	439868
7	5224	17.20336	440404
7	5239	17.25	440940
7	5254	17.29664	441476
7	5269	17.34328	442012
7	5284	17.38992	442548
7	5299	17.43656	443084
7	5314	17.4832	443620
7	5329	17.52984	444156
7	5344	17.57648	444692
7	5359	17.62312	445228
7	5374	17.66976	445764
7	5389	17.7164	446300
7	5404	17.76304	446836
7	5419	17.80968	447372
7	5434	17.85632	447908
7	5449	17.90296	448444
7	5464	17.9496	448980
7	5479	17.99624	449516
7	5494	18.04288	450052
7	5509	18.08952	450588
7	5524	18.13616	451124
7	5539	18.1828	451660
7	5554	18.22944	452196
7	5569	18.27608	452732
7	5584	18.32272	453268
7	5599	18.36936	453804
7	5614	18.416	454340
7	5629	18.46264	454876
7	5644	18.50928	455412
7	5659	18.55592	455948
7	5674	18.60256	456484
7	5689	18.6492	457020
7	5704	18.69584	457556
7	5719	18.74248	458092
7	5734	18.78912	458628
7	5749	18.83576	459164
7	5764	18.8824	459700
7	5779	18.92904	460236
7	5794	18.97568	460772
7	5809	19.02232	461308
7	5824	19.06896	461844
7	5839	19.1156	462380
7	5854	19.16224	462916
7	5869	19.20888	463452
7	5884	19.25552	463988
7	5899	19.30216	464524
7	5914	19.3488	465060
7	5929	19.39544	465596
7	5944	19.44208	466132
7	5959	19.48872	466668
7	5974	19.53536	467204
7	5989	19.582	467740
7	6004	19.62864	468276
7	6019	19.67528	468812
7	6034	19.72192	469348
7	6049	19.76856	469884
7	6064	19.8152	470420
7	6079	19.86184	470956
7	6094	19.90848	471492
7	6109	19.95512	472028
7	6124	20.00176	472564
7	6139	20.0484	473100
7	6154	20.09504	473636
7	6169	20.14168	474172
7	6184	20.18832	474708
7	6199	20.23496	475244
7	6214	20.2816	475780
7	6229	20.32824	476316
7	6244	20.37488	476852
7	6259	20.42152	477388
7	6274	20.46816	477924
7	6289	20.5148	478460
7	6304	20.56144	478996
7	6319	20.60808	479532
7	6334	20.65472	480068
7	6349	20.70136	480604
7	6364	20.748	481140
7	6379	20.79464	481676
7	6394	20.84128	482212
7	6409	20.88792	482748
7	6424	20.93456	483284
7	6439	20.9812	483820
7	6454	21.02784	484356
7	6469	21.07448	484892
7	6484	21.12112	485428
7	6499	21.16776	485964
7	6514	21.2144	486500
7	6529	21.26104	487036
7	6544	21.30768	487572
7	6559	21.35432	488108
7	6574	21.40096	488644
7	6589	21.4476	489180
7	6604	21.49424	489716
7	6619	21.54088	490252
7	6634	21.58752	490788
7	6649	21.63416	491324
7	6664	21.6808	491860
7	6679	21.72744	492396
7	6694	21.77408	492932
7	6709	21.82072	493468
7	6724	21.86736	494004
7	6739	21.914	494540
7	6754	21.96064	495076
7	6769	22.00728	495612
7	6784	22.05392	496148
7	6799	22.10056	496684
7	6814	22.1472	497220
7	6829	22.19384	497756
7	6844	22.24048	498292
7	6859	22.28712	498828
7	6874	22.33376	499364
7	6889	22.3804	499900
7	6904	22.42704	500436
7	6919	22.47368	500972
7	6934	22.52032	501508
7	6949	22.56696	502044
7	6964	22.6136	502580
7	6979	22.66024	503116
7	6994	22.70688	503652
7	7009	22.75352	504188
7	7024	22.80016	504724
7	7039	22.8468	505260
7	7054	22.89344	505796
7	7069	22.94008	506332
7	7084	22.98672	506868
7	7099	23.03336	507404
7	7114	23.08	507940
7	7129	23.12664	508476
7	7144	23.17328	509012
7	7159	23.21992	509548
7	7174	23.26656	510084
7	7189	23.3132	510620
7	7204	23.35984	511156
7	7219	23.40648	511692
7	7234	23.45312	512228
7	7249	23.49976	512764
7	7264	23.5464	513300
7	7279	23.59304	513836
7	7294	23.63968	514372
7	7309	23.68632	514908
7	7324	23.73296	515444
7	7339	23.7796	515980
7	7354	23.82624	516516
7	7369	23.87288	517052
7	7384	23.91952	517588
7	7399	23.96616	518124
7	7414	24.0128	518660
7	7429	24.05944	519196
7	7444	24.10608	519732
7	7459	24.15272	520268
7	7474	24.19936	520804
7	7489	24.246	521340
7	7504	24.29264	521876
7	7519	24.33928	522412
7	7534	24.38592	522948
7	7549	24.43256	523484
7	7564	24.4792	524020
7	7579	24.52584	524556
7	7594	24.57248	525092
7	7609	24.61912	525628
7	7624	24.66576	526164
7	7639	24.7124	526700
7	7654	24.75904	527236
7	7669	24.80568	527772
7	7684	24.85232	528308
7	7699	24.89896	528844
7	7714	24.9456	529380
7	7729	24.99224	529916
7	7744	25.03888	530452
7	7759	25.08552	530988
7	7774	25.13216	531524
7	7789	25.1788	532060
7	7804	25.22544	532596
7	7819	25.27208	533132
7	7834	25.31872	533668
7	7849	25.36536	534204
7	7864	25.412	534740
7	7879	25.45864	535276
7	7894	25.50528	535812
7	7909	25.55192	536348
7	7924	25.59856	536884
7	7939	25.6452	537420
7	7954	25.69184	537956
7	7969	25.73848	538492
7	7984	25.78512	539028
7	7999	25.83176	539564
7	8014	25.8784	540100
7	8029	25.92504	540636
7	8044	25.97168	541172
7	8059	26.01832	541708
7	8074	26.06496	542244
7	8089	26.1116	542780
7	8104	26.15824	543316
7	8119	26.20488	543852
7	8134	26.25152	544388
7	8149	26.29816	544924
7	8164	26.3448	545460
7	8179	26.39144	545996
7	8194	26.43808	546532
7	8209	26.48472	547068
7	8224	26.53136	547604
7	8239	26.578	548140
7	8254	26.62464	548676
7	8269	26.67128	549212
7	8284	26.71792	549748
7	8299	26.76456	550284
7	8314	26.8112	550820
7	8329	26.85784	551356
7	8344	26.90448	551892
7	8359	26.95112	552428
7	8374	26.99776	552964
7	8389	27.0444	553500
7	8404	27.09104	554036
7	8419	27.13768	554572
7	8434	27.18432	555108
7	8449	27.23096	555644
7	8464	27.2776	556180
7	8479	27.32424	556716
7	8494	27.37088	557252
7	8509	27.41752	557788
7	8524	27.46416	558324
7	8539	27.5108	558860
7	8554	27.55744	559396
7	8569	27.60408	559932
7	8584	27.65072	560468
7	8599	27.69736	561004
7	8614	27.744	561540
7	8629	27.79064	562076
7	8644	27.83728	562612
7	8659	27.88392	563148
7	8674	27.93056	563684
7	8689	27.9772	564220
7	8704	28.02384	564756
7	8719	28.07048	565292
7	8734	28.11712	565828
7	8749	28.16376	566364
7	8764	28.2104	566900
7	8779	28.25704	567436
7	8794	28.30368	567972
7	8809	28.35032	568508
7	8824	28.39696	569044
7	8839	28.4436	569580
7	8854	28.49024	570116
7	8869	28.53688	570652
7	8884	28.58352	571188
7	8899	28.63016	571724
7	8914	28.6768	572260
7	8929	28.72344	572796
7	8944	28.77008	573332
7	8959	28.81672	573868
7	8974	28.86336	574404
7	8989	28.91	574940
7	9004	28.95664	575476
7	9019	29.00328	576012
7	9034	29.04992	576548
7	9049	29.09656	577084
7	9064	29.1432	577620
7	9079	29.18984	578156
7	9094	29.23648	578692
7	9109	29.28312	579228
7	9124	29.32976	579764
7	9139	29.3764	580300
7	9154	29.42304	580836
7	9169	29.46968	581372
7	9184	29.51632	581908
7	9199	29.56296	582444
7	9214	29.6096	582980
7	9229	29.65624	583516
7	9244	29.70288	584052
7	9259	29.74952	584588
7	9274	29.79616	585124
7	9289	29.8428	585660
7	9304	29.88944	586196
7	9319	29.93608	586732
7	9334	29.98272	587268
7	9349	30.02936	587804
7	9364	30.076	588340
7	9379	30.12264	588876
7	9394	30.16928	589412
7	9409	30.21592	589948
7	9424	30.26256	590484
7	9439	30.3092	591020
7	9454	30.35584	591556
7	9469	30.40248	592092
7	9484	30.44912	592628
7	9499	30.49576	593164
7	9514	30.5424	593700
7	9529	30.58904	594236
7	9544	30.63568	594772
7	9559	30.68232	595308
7	9574	30.72896	595844
7	9589	30.7756	596380
7	9604	30.82224	596916
7	9619	30.86888	597452
7	9634	30.91552	597988
7	9649	30.96216	598524
7	9664	31.0088	599060
7	9679	31.05544	599596
7	9694	31.10208	600132
7	9709	31.14872	600668
7	9724	31.19536	601204
7	9739	31.242	601740
7	9754	31.28864	602276
7	9769	31.33528	602812
7	9784	31.38192	603348
7	9799	31.42856	603884
7	9814	31.4752	604420
7	9829	31.52184	604956
7	9844	31.56848	605492
7	9859	31.61512	606028
7	9874	31.66176	606564
7	9889	31.7084	607100
7	9904	31.75504	607636
7	9919	31.80168	608172
7	9934	31.84832	608708
7	9949	31.89496	609244
7	9964	31.9416	609780
7	9979	31.98824	610316
7	9994	32.03488	610852
7	10009	32.08152	611388
7	10024	32.12816	611924
7	10039	32.1748	612460
7	10054	32.22144	612996
7	10069	32.26808	613532
7	10084	32.31472	614068
7	10099	32.36136	614604
7	10114	32.408	615140
7	10129	32.45464	615676
7	10144	32.50128	616212
7	10159	32.54792	616748
7	10174	32.59456	617284
7	10189	32.6412	617820
7	10204	32.68784	618356
7	10219	32.73448	618892
7	10234	32.78112	619428
7	10249	32.82776	619964
7	10264	32.8744	620500
7	10279	32.92104	621036
7	10294	32.96768	621572
7	10309	33.01432	622108
7	10324	33.06096	622644
7	10339	33.1076	623180
7	10354	33.15424	623716
7	10369	33.20088	624252
7	10384	33.24752	624788
7	10399	33.29416	625324
7	10414	33.3408	625860
7	10429	33.38744	626396
7	10444	33.43408	626932
7	10459	33.48072	627468
7	10474	33.52736	628004
7	10489	33.574	628540
7	10504	33.62064	629076
7	10519	33.66728	629612
7	10534	33.71392	630148
7	10549	33.76056	630684
7	10564	33.8072	631220
7	10579	33.85384	631756
7	10594	33.90048	632292
7	10609	33.94712	632828
7	10624	33.99376	633364
7	10639	34.0404	633900
7	10654	34.08704	634436
7	10669	34.13368	634972
7	10684	34.18032	635508
7	10699	34.22696	636044
7	10714	34.2736	636580
7	10729	34.32024	637116
7	10744	34.36688	637652
7	10759	34.41352	638188
7	10774	34.46016	638724
7	10789	34.5068	639260
7	10804	34.55344	639796
7	10819	34.60008	640332
7	10834	34.64672	640868
7	10849	34.69336	641404
7	10864	34.74	641940
7	10879	34.78664	642476
7	10894	34.83328	643012
7	10909	34.87992	643548
7	10924	34.92656	644084
7	10939	34.9732	644620
7	10954	35.01984	645156
7	10969	35.06648	645692
7	10984	35.11312	646228
7	10999	35.15976	646764
7	11014	35.2064	647300
7	11029	35.25304	647836
7	11044	35.29968	648372
7	11059	35.34632	648908
7	11074	35.39296	649444
7	11089	35.4396	649980
7	11104	35.48624	650516
7	11119	35.53288	651052
7	11134	35.57952	651588
7	11149	35.62616	652124
7	11164	35.6728	652660
7	11179	35.71944	653196
7	11194	35.76608	653732
7	11209	35.81272	654268
7	11224	35.85936	654804
7	11239	35.906	655340
7	11254	35.95264	655876
7	11269	35.99928	656412
7	11284	36.04592	656948
7	11299	36.09256	657484
7	11314	36.1392	658020
7	11329	36.18584	658556
7	11344	36.23248	659092
7	11359	36.27912	659628
7	11374	36.32576	660164
7	11389	36.3724	660700
7	11404	36.41904	661236
7	11419	36.46568	661772
7	11434	36.51232	662308
7	11449	36.55896	662844
7	11464	36.6056	663380
7	11479	36.65224	663916
7	11494	36.69888	664452
7	11509	36.74552	664988
7	11524	36.79216	665524
7	11539	36.8388	666060
7	11554	36.88544	666596
7	11569	36.93208	667132
7	11584	36.97872	667668
7	11599	37.02536	668204
7	11614	37.072	668740
7	11629	37.11864	669276
7	11644	37.16528	669812
7	11659	37.21192	670348
7	11674	37.25856	670884
7	11689	37.3052	671420
7	11704	37.35184	671956
7	11719	37.39848	672492
7	11734	37.44512	673028
7	11749	37.49176	673564
7	11764	37.5384	674100
7	11779	37.58504	674636
7	11794	37.63168	675172
7	11809	37.67832	675708
7	11824	37.72496	676244
7	11839	37.7716	676780
7	11854	37.81824	677316
7	11869	37.86488	677852
7	11884	37.91152	678388
7	11899	37.95816	678924
7	11914	38.0048	679460
7	11929	38.05144	679996
7	11944	38.09808	680532
7	11959	38.14472	681068
7	11974	38.19136	681604
7	11989	38.238	682140
7	12004	38.28464	682676
7	12019	38.33128	683212
7	12034	38.37792	683748
7	12049	38.42456	684284
7	12064	38.4712	684820
7	12079	38.51784	685356
7	12094	38.56448	685892
7	12109	38.61112	686428
7	12124	38.65776	686964
7	12139	38.7044	687500
7	12154	38.75104	688036
7	12169	38.79768	688572
7	12184	38.84432	689108
7	12199	38.89096	689644
7	12214	38.9376	690180
7	12229	38.98424	690716
7	12244	39.03088	691252
7	12259	39.07752	691788
7	12274	39.12416	692324
7	12289	39.1708	692860
7	12304	39.21744	693396
7	12319	39.26408	693932
7	12334	39.31072	694468
7	12349	39.35736	695004
7	12364	39.404	695540
7	12379	39.45064	696076
7	12394	39.49728	696612
7	12409	39.54392	697148
7	12424	39.59056	697684
7	12439	39.6372	698220
7	12454	39.68384	698756
7	12469	39.73048	699292
7	12484	39.77712	699828
7	12499	39.82376	700364
7	12514	39.8704	700900
7	12529	39.91704	701436
7	12544	39.96368	701972
7	12559	40.01032	702508
7	12574	40.05696	703044
7	12589	40.1036	703580
7	12604	40.15024	704116
7	12619	40.19688	704652
7	12634	40.24352	705188
7	12649	40.29016	705724
7	12664	40.3368	706260
7	12679	40.38344	706796
7	12694	40.43008	707332
7	12709	40.47672	707868
7	12724	40.52336	708404
7	12739	40.57	708940
7	12754	40.61664	709476
7	12769	40.66328	710012
7	12784	40.70992	710548
7	12799	40.75656	711084
7	12814	40.8032	711620
7	12829	40.84984	712156
7	12844	40.89648	712692
7	12859	40.94312	713228
7	12874	40.98976	713764
7	12889	41.0364	714300
7	12904	41.08304	714836
7	12919	41.12968	715372
7	12934	41.17632	715908
7	12949	41.22296	716444
7	12964	41.2696	716980
7	12979	41.31624	717516
7	12994	41.36288	718052
7	13009	41.40952	718588
7	13024	41.45616	719124
7	13039	41.5028	719660
7	13054	41.54944	720196
7	13069	41.59608	720732
7	13084	41.64272	721268
7	13099	41.68936	721804
7	13114	41.736	722340
7	13129	41.78264	722876
7	13144	41.82928	723412
7	13159	41.87592	723948
7	13174	41.92256	724484
7	13189	41.9692	725020
7	13204	42.01584	725556
7	13219	42.06248	726092
7	13234	42.10912	726628
7	13249	42.15576	727164
7	13264	42.2024	727700
7	13279	42.24904	728236
7	13294	42.29568	728772
7	13309	42.34232	729308
7	13324	42.38896	729844
7	13339	42.4356	730380
7	13354	42.48224	730916
7	13369	42.52888	731452
7	13384	42.57552	731988
7	13399	42.62216	732524
7	13414	42.6688	733060
7	13429	42.71544	733596
7	13444	42.76208	734132
7	13459	42.80872	734668
7	13474	42.85536	735204
7	13489	42.902	735740
7	13504	42.94864	736276
7	13519	42.99528	736812
7	13534	43.04192	737348
7	13549	43.08856	737884
7	13564	43.1352	738420
7	13579	43.18184	738956
7	13594	43.22848	739492
7	13609	43.27512	740028
7	13624	43.32176	740564
7	13639	43.3684	741100
7	13654	43.41504	741636
7	13669	43.46168	742172
7	13684	43.50832	742708
7	13699	43.55496	743244
7	13714	43.6016	743780
7	13729	43.64824	744316
7	13744	43.69488	744852
7	13759	43.74152	745388
7	13774	43.78816	745924
7	13789	43.8348	746460
7	13804	43.88144	746996
7	13819	43.92808	747532
7	13834	43.97472	748068
7	13849	44.02136	748604
7	13864	44.068	749140
7	13879	44.11464	749676
7	13894	44.16128	750212
7	13909	44.20792	750748
7	13924	44.25456	751284
7	13939	44.3012	751820
7	13954	44.34784	752356
7	13969	44.39448	752892
7	13984	44.44112	753428
7	13999	44.48776	753964
7	14014	44.5344	754500
7	14029	44.58104	755036
7	14044	44.62768	755572
7	14059	44.67432	756108
7	14074	44.72096	756644
7	14089	44.7676	757180
7	14104	44.81424	757716
7	14119	44.86088	758252
7	14134	44.90752	758788
7	14149	44.95416	759324
7	14164	45.0008	759860
7	14179	45.04744	760396
7	14194	45.09408	760932
7	14209	45.14072	761468
7	14224	45.18736	762004
7	14239	45.234	762540
7	14254	45.28064	763076
7	14269	45.32728	763612
7	14284	45.37392	764148
7	14299	45.42056	764684
7	14314	45.4672	765220
7	14329	45.51384	765756
7	14344	45.56048	766292
7	14359	45.60712	766828
7	14374	45.65376	767364
7	14389	45.7004	767900
7	14404	45.74704	768436
7	14419	45.79368	768972
7	14434	45.84032	769508
7	14449	45.88696	770044
7	14464	45.9336	770580
7	14479	45.98024	771116
7	14494	46.02688	771652
7	14509	46.07352	772188
7	14524	46.12016	772724
7	14539	46.1668	773260
7	14554	46.21344	773796
7	14569	46.26008	774332
7	14584	46.30672	774868
7	14599	46.35336	775404
7	14614	46.4	775940
7	14629	46.44664	776476
7	14644	46.49328	777012
7	14659	46.53992	777548
7	14674	46.58656	778084
7	14689	46.6332	778620
7	14704	46.67984	779156
7	14719	46.72648	779692
7	14734	46.77312	780228
7	14749	46.81976	780764
7	14764	46.8664	781300
7	14779	46.91304	781836
7	14794	46.95968	782372
7	14809	47.00632	782908
7	14824	47.05296	783444
7	14839	47.0996	783980
7	14854	47.14624	784516
7	14869	47.19288	785052
7	14884	47.23952	785588
7	14899	47.28616	786124
7	14914	47.3328	786660
7	14929	47.37944	787196
7	14944	47.42608	787732
7	14959	47.47272	788268
7	14974	47.51936	788804
7	14989	47.566	789340
7	15004	47.61264	789876
7	15019	47.65928	790412
7	15034	47.70592	790948
7	15049	47.75256	791484
7	15064	47.7992	792020
7	15079	47.84584	792556
7	15094	47.89248	793092
7	15109	47.93912	793628
7	15124	47.98576	794164
7	15139	48.0324	794700
7	15154	48.07904	795236
7	15169	48.12568	795772
7	15184	48.17232	796308
7	15199	48.21896	796844
7	15214	48.2656	797380
7	15229	48.31224	797916
7	15244	48.35888	798452
7	15259	48.40552	798988
7	15274	48.45216	799524
7	15289	48.4988	800060
7	15304	48.54544	800596
7	15319	48.59208	801132
7	15334	48.63872	801668
7	15349	48.68536	802204
7	15364	48.732	802740
7	15379	48.77864	803276
7	15394	48.82528	803812
7	15409	48.87192	804348
7	15424	48.91856	804884
7	15439	48.9652	805420
7	15454	49.01184	805956
7	15469	49.05848	806492
7	15484	49.10512	807028
7	15499	49.15176	807564
7	15514	49.1984	808100
7	15529	49.24504	808636
7	15544	49.29168	809172
7	15559	49.33832	809708
7	15574	49.38496	810244
7	15589	49.4316	810780
7	15604	49.47824	811316
7	15619	49.52488	811852
7	15634	49.57152	812388
7	15649	49.61816	812924
7	15664	49.6648	813460
7	15679	49.71144	813996
7	15694	49.75808	814532
7	15709	49.80472	815068
7	15724	49.85136	815604
7	15739	49.898	816140
7	15754	49.94464	816676
7	15769	49.99128	817212
27	17	1.04816	256019
27	48	1.11544	256020
27	52	1.16208	256020
27	70	1.25248	256556
27	87	1.29912	257092
27	104	1.34576	257628
27	121	1.3924	258164
27	138	1.43904	258700
27	155	1.48568	259236
27	172	1.53232	259772
27	189	1.57896	260308
27	206	1.6256	260844
27	223	1.67224	261380
27	240	1.71888	261916
27	257	1.76552	262452
27	274	1.81216	262988
27	289	1.8588	263524
27	304	1.90544	264060
27	319	1.95208	264596
27	334	1.99872	265132
27	349	2.04536	265668
27	364	2.092	266204
27	379	2.13864	266740
27	394	2.18528	267276
27	409	2.23192	267812
27	424	2.27856	268348
27	439	2.3252	268884
27	454	2.37184	269420
27	469	2.41848	269956
27	484	2.46512	270492
27	499	2.51176	271028
27	514	2.5584	271564
27	529	2.60504	272100
27	544	2.65168	272636
27	559	2.69832	273172
27	574	2.74496	273708
27	589	2.7916	274244
27	604	2.83824	274780
27	619	2.88488	275316
27	634	2.93152	275852
27	649	2.97816	276388
27	664	3.0248	276924
27	679	3.07144	277460
27	694	3.11808	277996
27	709	3.16472	278532
27	724	3.21136	279068
27	739	3.258	279604
27	754	3.30464	280140
27	769	3.35128	280676
27	784	3.39792	281212
27	799	3.44456	281748
27	814	3.4912	282284
27	829	3.53784	282820
27	844	3.58448	283356
27	859	3.63112	283892
27	874	3.67776	284428
27	889	3.7244	284964
27	904	3.77104	285500
27	919	3.81768	286036
27	934	3.86432	286572
27	949	3.91096	287108
27	964	3.9576	287644
27	979	4.00424	288180
27	994	4.05088	288716
27	1009	4.09752	289252
27	1024	4.14416	289788
27	1039	4.1908	290324
27	1054	4.23744	290860
27	1069	4.28408	291396
27	1084	4.33072	291932
27	1099	4.37736	292468
[...]
26	11582	36.97872	576
26	11597	37.02536	576
26	11612	37.072	576
26	11627	37.11864	576
26	11642	37.16528	576
26	11657	37.21192	576
26	11672	37.25856	576
26	11687	37.3052	576
26	11702	37.35184	576
26	11717	37.39848	576
26	11732	37.44512	576
26	11747	37.49176	576
26	11762	37.5384	576
26	11777	37.58504	576
26	11792	37.63168	576
26	11807	37.67832	576
26	11822	37.72496	576
26	11837	37.7716	576
26	11852	37.81824	576
26	11867	37.86488	576
26	11882	37.91152	576
26	11897	37.95816	576
26	11912	38.0048	576
26	11927	38.05144	576
26	11942	38.09808	576
26	11957	38.14472	576
26	11972	38.19136	576
26	11987	38.238	576
26	12002	38.28464	576
26	12017	38.33128	576
26	12032	38.37792	576
26	12047	38.42456	576
26	12062	38.4712	576
26	12077	38.51784	576
26	12092	38.56448	576
26	12107	38.61112	576
26	12122	38.65776	576
26	12137	38.7044	576
26	12152	38.75104	576
26	12167	38.79768	576
26	12182	38.84432	576
26	12197	38.89096	576
26	12212	38.9376	576
26	12227	38.98424	576
26	12242	39.03088	576
26	12257	39.07752	576
26	12272	39.12416	576
26	12287	39.1708	576
26	12302	39.21744	576
26	12317	39.26408	576
26	12332	39.31072	576
26	12347	39.35736	576
26	12362	39.404	576
26	12377	39.45064	576
26	12392	39.49728	576
26	12407	39.54392	576
26	12422	39.59056	576
26	12437	39.6372	576
26	12452	39.68384	576
26	12467	39.73048	576
26	12482	39.77712	576
26	12497	39.82376	576
26	12512	39.8704	576
26	12527	39.91704	576
26	12542	39.96368	576
26	12557	40.01032	576
26	12572	40.05696	576
26	12587	40.1036	576
26	12602	40.15024	576
26	12617	40.19688	576
26	12632	40.24352	576
26	12647	40.29016	576
26	12662	40.3368	576
26	12677	40.38344	576
26	12692	40.43008	576
26	12707	40.47672	576
26	12722	40.52336	576
26	12737	40.57	576
26	12752	40.61664	576
26	12767	40.66328	576
26	12782	40.70992	576
26	12797	40.75656	576
26	12812	40.8032	576
26	12827	40.84984	576
26	12842	40.89648	576
26	12857	40.94312	576
26	12872	40.98976	576
26	12887	41.0364	576
26	12902	41.08304	576
26	12917	41.12968	576
26	12932	41.17632	576
26	12947	41.22296	576
26	12962	41.2696	576
26	12977	41.31624	576
26	12992	41.36288	576
26	13007	41.40952	576
26	13022	41.45616	576
26	13037	41.5028	576
26	13052	41.54944	576
26	13067	41.59608	576
26	13082	41.64272	576
26	13097	41.68936	576
26	13112	41.736	576
26	13127	41.78264	576
26	13142	41.82928	576
26	13157	41.87592	576
26	13172	41.92256	576
26	13187	41.9692	576
26	13202	42.01584	576
26	13217	42.06248	576
26	13232	42.10912	576
26	13247	42.15576	576
26	13262	42.2024	576
26	13277	42.24904	576
26	13292	42.29568	576
26	13307	42.34232	576
26	13322	42.38896	576
26	13337	42.4356	576
26	13352	42.48224	576
26	13367	42.52888	576
26	13382	42.57552	576
26	13397	42.62216	576
26	13412	42.6688	576
26	13427	42.71544	576
26	13442	42.76208	576
26	13457	42.80872	576
26	13472	42.85536	576
26	13487	42.902	576
26	13502	42.94864	576
26	13517	42.99528	576
26	13532	43.04192	576
26	13547	43.08856	576
26	13562	43.1352	576
26	13577	43.18184	576
26	13592	43.22848	576
26	13607	43.27512	576
26	13622	43.32176	576
26	13637	43.3684	576
26	13652	43.41504	576
26	13667	43.46168	576
26	13682	43.50832	576
26	13697	43.55496	576
26	13712	43.6016	576
26	13727	43.64824	576
26	13742	43.69488	576
26	13757	43.74152	576
26	13772	43.78816	576
26	13787	43.8348	576
26	13802	43.88144	576
26	13817	43.92808	576
26	13832	43.97472	576
26	13847	44.02136	576
26	13862	44.068	576
26	13877	44.11464	576
26	13892	44.16128	576
26	13907	44.20792	576
26	13922	44.25456	576
26	13937	44.3012	576
26	13952	44.34784	576
26	13967	44.39448	576
26	13982	44.44112	576
26	13997	44.48776	576
26	14012	44.5344	576
26	14027	44.58104	576
26	14042	44.62768	576
26	14057	44.67432	576
26	14072	44.72096	576
26	14087	44.7676	576
26	14102	44.81424	576
26	14117	44.86088	576
26	14132	44.90752	576
26	14147	44.95416	576
26	14162	45.0008	576
26	14177	45.04744	576
26	14192	45.09408	576
26	14207	45.14072	576
26	14222	45.18736	576
26	14237	45.234	576
26	14252	45.28064	576
26	14267	45.32728	576
26	14282	45.37392	576
26	14297	45.42056	576
26	14312	45.4672	576
26	14327	45.51384	576
26	14342	45.56048	576
26	14357	45.60712	576
26	14372	45.65376	576
26	14387	45.7004	576
26	14402	45.74704	576
26	14417	45.79368	576
26	14432	45.84032	576
26	14447	45.88696	576
26	14462	45.9336	576
26	14477	45.98024	576
26	14492	46.02688	576
26	14507	46.07352	576
26	14522	46.12016	576
26	14537	46.1668	576
26	14552	46.21344	576
26	14567	46.26008	576
26	14582	46.30672	576
26	14597	46.35336	576
26	14612	46.4	576
26	14627	46.44664	576
26	14642	46.49328	576
26	14657	46.53992	576
26	14672	46.58656	576
26	14687	46.6332	576
26	14702	46.67984	576
26	14717	46.72648	576
26	14732	46.77312	576
26	14747	46.81976	576
26	14762	46.8664	576
26	14777	46.91304	576
26	14792	46.95968	576
26	14807	47.00632	576
26	14822	47.05296	576
26	14837	47.0996	576
26	14852	47.14624	576
26	14867	47.19288	576
26	14882	47.23952	576
26	14897	47.28616	576
26	14912	47.3328	576
26	14927	47.37944	576
26	14942	47.42608	576
26	14957	47.47272	576
26	14972	47.51936	576
26	14987	47.566	576
26	15002	47.61264	576
26	15017	47.65928	576
26	15032	47.70592	576
26	15047	47.75256	576
26	15062	47.7992	576
26	15077	47.84584	576
26	15092	47.89248	576
26	15107	47.93912	576
26	15122	47.98576	576
26	15137	48.0324	576
26	15152	48.07904	576
26	15167	48.12568	576
26	15182	48.17232	576
26	15197	48.21896	576
26	15212	48.2656	576
26	15227	48.31224	576
26	15242	48.35888	576
26	15257	48.40552	576
26	15272	48.45216	576
26	15287	48.4988	576
26	15302	48.54544	576
26	15317	48.59208	576
26	15332	48.63872	576
26	15347	48.68536	576
26	15362	48.732	576
26	15377	48.77864	576
26	15392	48.82528	576
26	15407	48.87192	576
26	15422	48.91856	576
26	15437	48.9652	576
26	15452	49.01184	576
26	15467	49.05848	576
26	15482	49.10512	576
26	15497	49.15176	576
26	15512	49.1984	576
26	15527	49.24504	576
26	15542	49.29168	576
26	15557	49.33832	576
26	15572	49.38496	576
26	15587	49.4316	576
26	15602	49.47824	576
26	15617	49.52488	576
26	15632	49.57152	576
26	15647	49.61816	576
26	15662	49.6648	576
26	15677	49.71144	576
26	15692	49.75808	576
26	15707	49.80472	576
26	15722	49.85136	576
26	15737	49.898	576
26	15752	49.94464	576
26	15767	49.99128	576
26	15792	50.03792	576
26	15806	50.08456	576
26	15818	50.1312	576
26	15830	50.17784	576
26	15842	50.22448	576
26	15854	50.27112	576
26	15866	50.31776	576
26	15878	50.3644	576
26	15890	50.41104	576
26	15902	50.45768	576
26	15914	50.50432	576
26	15926	50.55096	576
26	15938	50.5976	576
26	15949	50.64424	576
26	16034	75.04816	44
26	16065	75.11544	40
26	16069	75.16208	576
26	16087	75.25248	576
26	16104	75.29912	576
26	16121	75.34576	576
26	16138	75.3924	576
26	16155	75.43904	576
26	16172	75.48568	576
26	16189	75.53232	576
26	16206	75.57896	576
26	16223	75.6256	576
26	16240	75.67224	576
26	16257	75.71888	576
26	16274	75.76552	576
26	16291	75.81216	576
26	16306	75.8588	576
26	16321	75.90544	576
26	16336	75.95208	576
26	16351	75.99872	576
46	15815	50.10832	250201
46	15827	50.15496	250201
46	15839	50.2016	250201
46	15851	50.24824	250201
46	15863	50.29488	250201
46	15875	50.34152	250201
46	15887	50.38816	250201
46	15899	50.4348	250201
46	15911	50.48144	250201
46	15923	50.52808	250201
46	15935	50.57472	250201
46	15947	50.62136	250201
46	15958	50.668	250201
46	16029	75.02408	18750000
46	16049	75.07192	18750001
46	16055	75.09168	18750001
46	16079	75.18584	18750201
46	16097	75.27624	18750201
46	16114	75.32288	18750201
46	16131	75.36952	18750201
46	16148	75.41616	18750201
46	16165	75.4628	18750201
46	16182	75.50944	18750201
46	16199	75.55608	18750201
46	16216	75.60272	18750201
46	16233	75.64936	18750201
46	16250	75.696	18750201
46	16267	75.74264	18750201
46	16284	75.78928	18750201
46	16301	75.83592	18750201
46	16316	75.88256	18750201
46	16331	75.9292	18750201
46	16346	75.97584	18750201
47	15815	50.10832	0
47	15827	50.15496	0
47	15839	50.2016	0
47	15851	50.24824	0
47	15863	50.29488	0
47	15875	50.34152	0
47	15887	50.38816	0
47	15899	50.4348	0
47	15911	50.48144	0
47	15923	50.52808	0
47	15935	50.57472	0
47	15947	50.62136	0
47	15958	50.668	0
47	16029	75.02408	0
47	16049	75.07192	18756021
47	16055	75.09168	18756021
47	16079	75.18584	18756557
47	16097	75.27624	18757093
47	16114	75.32288	18757629
47	16131	75.36952	18758165
47	16148	75.41616	18758701
47	16165	75.4628	18759237
47	16182	75.50944	18759773
47	16199	75.55608	18760309
47	16216	75.60272	18760845
47	16233	75.64936	18761381
47	16250	75.696	18761917
47	16267	75.74264	18762453
47	16284	75.78928	18762989
47	16301	75.83592	18763525
47	16316	75.88256	18764061
47	16331	75.9292	18764597
47	16346	75.97584	18765133
48	16022	75	0
48	16036	75.04816	0
48	16040	75.04816	0
48	16071	75.16208	0
48	16071	75.16208	0
48	16089	75.25248	0
48	16089	75.25248	0
48	16106	75.29912	0
48	16106	75.29912	0
48	16123	75.34576	0
48	16123	75.34576	0
48	16140	75.3924	0
48	16140	75.3924	0
48	16157	75.43904	0
48	16157	75.43904	0
48	16174	75.48568	0
48	16174	75.48568	0
48	16191	75.53232	0
48	16191	75.53232	0
48	16208	75.57896	0
48	16208	75.57896	0
48	16225	75.6256	0
48	16225	75.6256	0
48	16242	75.67224	0
48	16242	75.67224	0
48	16259	75.71888	0
48	16259	75.71888	0
48	16276	75.76552	0
48	16276	75.76552	0
48	16293	75.81216	0
48	16293	75.81216	0
48	16308	75.8588	0
48	16308	75.8588	0
48	16323	75.90544	0
48	16323	75.90544	0
48	16338	75.95208	0
48	16338	75.95208	0
48	16353	75.99872	0
48	16353	75.99872	0
49	16022	75	7504
49	16036	75.04816	18763525
49	16036	75.04816	18763525
49	16040	75.04816	18763525
49	16071	75.16208	18764061
49	16089	75.25248	18764597
49	16106	75.29912	18765133
49	16123	75.34576	18765669
49	16140	75.3924	18766205
49	16157	75.43904	18766741
49	16174	75.48568	18767277
49	16191	75.53232	18767813
49	16208	75.57896	18768349
49	16225	75.6256	18768885
49	16242	75.67224	18769421
49	16259	75.71888	18769957
49	16276	75.76552	18770493
49	16293	75.81216	18771029
49	16308	75.8588	18771565
49	16323	75.90544	18772101
49	16338	75.95208	18772637
49	16353	75.99872	18773173
50	16022	75	7504
50	16036	75.04816	7504
50	16040	75.04816	7504
50	16071	75.16208	7504
50	16089	75.25248	7504
50	16106	75.29912	7504
50	16123	75.34576	7504
50	16140	75.3924	7504
50	16157	75.43904	7504
50	16174	75.48568	7504
50	16191	75.53232	7504
50	16208	75.57896	7504
50	16225	75.6256	7504
50	16242	75.67224	7504
50	16259	75.71888	7504
50	16276	75.76552	7504
50	16293	75.81216	7504
50	16308	75.8588	7504
50	16323	75.90544	7504
50	16338	75.95208	7504
50	16353	75.99872	7504
51	16022	75	0
51	16036	75.04816	18756021
51	16040	75.04816	18756021
51	16071	75.16208	18756557
51	16089	75.25248	18757093
51	16106	75.29912	18757629
51	16123	75.34576	18758165
51	16140	75.3924	18758701
51	16157	75.43904	18759237
51	16174	75.48568	18759773
51	16191	75.53232	18760309
51	16208	75.57896	18760845
51	16225	75.6256	18761381
51	16242	75.67224	18761917
51	16259	75.71888	18762453
51	16276	75.76552	18762989
51	16293	75.81216	18763525
51	16308	75.8588	18764061
51	16323	75.90544	18764597
51	16338	75.95208	18765133
51	16353	75.99872	18765669
52	16029	75.02408	18757505
52	16029	75.02408	18757505
52	16055	75.09168	18757705
52	16058	75.09168	18757705
52	16079	75.18584	18757705
52	16079	75.18584	18757705
52	16097	75.27624	18757705
52	16097	75.27624	18757705
52	16114	75.32288	18757705
52	16114	75.32288	18757705
52	16131	75.36952	18757705
52	16131	75.36952	18757705
52	16148	75.41616	18757705
52	16148	75.41616	18757705
52	16165	75.4628	18757705
52	16165	75.4628	18757705
52	16182	75.50944	18757705
52	16182	75.50944	18757705
52	16199	75.55608	18757705
52	16199	75.55608	18757705
52	16216	75.60272	18757705
52	16216	75.60272	18757705
52	16233	75.64936	18757705
52	16233	75.64936	18757705
52	16250	75.696	18757705
52	16250	75.696	18757705
52	16267	75.74264	18757705
52	16267	75.74264	18757705
52	16284	75.78928	18757705
52	16284	75.78928	18757705
52	16301	75.83592	18757705
52	16316	75.88256	18757705
52	16331	75.9292	18757705
52	16346	75.97584	18757705
53	16029	75.02408	7504
53	16049	75.07192	7504
53	16079	75.18584	7504
53	16097	75.27624	7504
53	16114	75.32288	7504
53	16131	75.36952	7504
53	16148	75.41616	7504
53	16165	75.4628	7504
53	16182	75.50944	7504
53	16199	75.55608	7504
53	16216	75.60272	7504
53	16233	75.64936	7504
53	16250	75.696	7504
53	16267	75.74264	7504
53	16284	75.78928	7504
53	16301	75.83592	7504
53	16316	75.88256	7504
53	16331	75.9292	7504
53	16346	75.97584	7504
54	16029	75.02408	0
54	16055	75.09168	0
54	16055	75.09168	0
54	16058	75.09168	0
54	16079	75.18584	0
54	16079	75.18584	0
54	16097	75.27624	0
54	16097	75.27624	0
54	16114	75.32288	0
54	16114	75.32288	0
54	16131	75.36952	0
54	16131	75.36952	0
54	16148	75.41616	0
54	16148	75.41616	0
54	16165	75.4628	0
54	16165	75.4628	0
54	16182	75.50944	0
54	16182	75.50944	0
54	16199	75.55608	0
54	16199	75.55608	0
54	16216	75.60272	0
54	16216	75.60272	0
54	16233	75.64936	0
54	16233	75.64936	0
54	16250	75.696	0
54	16250	75.696	0
54	16267	75.74264	0
54	16267	75.74264	0
54	16284	75.78928	0
54	16284	75.78928	0
54	16301	75.83592	0
54	16316	75.88256	0
54	16331	75.9292	0
54	16346	75.97584	0
55	16029	75.02408	7504
55	16055	75.09168	7504
55	16058	75.09168	7504
55	16079	75.18584	7504
55	16079	75.18584	7504
55	16097	75.27624	7504
55	16097	75.27624	7504
55	16114	75.32288	7504
55	16114	75.32288	7504
55	16131	75.36952	7504
55	16131	75.36952	7504
55	16148	75.41616	7504
55	16148	75.41616	7504
55	16165	75.4628	7504
55	16165	75.4628	7504
55	16182	75.50944	7504
55	16182	75.50944	7504
55	16199	75.55608	7504
55	16199	75.55608	7504
55	16216	75.60272	7504
55	16216	75.60272	7504
55	16233	75.64936	7504
55	16233	75.64936	7504
55	16250	75.696	7504
55	16250	75.696	7504
55	16267	75.74264	7504
55	16267	75.74264	7504
55	16284	75.78928	7504
55	16284	75.78928	7504
55	16301	75.83592	7504
55	16316	75.88256	7504
55	16331	75.9292	7504
55	16346	75.97584	7504
56	16029	75.02408	18750001
56	16055	75.09168	18750201
56	16058	75.09168	18750201
56	16079	75.18584	18750201
56	16079	75.18584	18750201
56	16097	75.27624	18750201
56	16097	75.27624	18750201
56	16114	75.32288	18750201
56	16114	75.32288	18750201
56	16131	75.36952	18750201
56	16131	75.36952	18750201
56	16148	75.41616	18750201
56	16148	75.41616	18750201
56	16165	75.4628	18750201
56	16165	75.4628	18750201
56	16182	75.50944	18750201
56	16182	75.50944	18750201
56	16199	75.55608	18750201
56	16199	75.55608	18750201
56	16216	75.60272	18750201
56	16216	75.60272	18750201
56	16233	75.64936	18750201
56	16233	75.64936	18750201
56	16250	75.696	18750201
56	16250	75.696	18750201
56	16267	75.74264	18750201
56	16267	75.74264	18750201
56	16284	75.78928	18750201
56	16284	75.78928	18750201
56	16301	75.83592	18750201
56	16316	75.88256	18750201
56	16331	75.9292	18750201
56	16346	75.97584	18750201
57	16036	75.04816	18756020
57	16067	75.11544	18756021
57	16071	75.16208	18756021
57	16089	75.25248	18756557
57	16106	75.29912	18757093
57	16123	75.34576	18757629
57	16140	75.3924	18758165
57	16157	75.43904	18758701
57	16174	75.48568	18759237
57	16191	75.53232	18759773
57	16208	75.57896	18760309
57	16225	75.6256	18760845
57	16242	75.67224	18761381
57	16259	75.71888	18761917
57	16276	75.76552	18762453
57	16293	75.81216	18762989
57	16308	75.8588	18763525
57	16323	75.90544	18764061
57	16338	75.95208	18764597
57	16353	75.99872	18765133
58	16036	75.04816	18750001
58	16067	75.11544	18750201
58	16071	75.16208	18750201
58	16089	75.25248	18750201
58	16106	75.29912	18750201
58	16123	75.34576	18750201
58	16140	75.3924	18750201
58	16157	75.43904	18750201
58	16174	75.48568	18750201
58	16191	75.53232	18750201
58	16208	75.57896	18750201
58	16225	75.6256	18750201
58	16242	75.67224	18750201
58	16259	75.71888	18750201
58	16276	75.76552	18750201
58	16293	75.81216	18750201
58	16308	75.8588	18750201
58	16323	75.90544	18750201
58	16338	75.95208	18750201
58	16353	75.99872	18750201
59	16036	75.04816	7504
59	16067	75.11544	7504
60	16040	75.04816	18750001
61	16040	75.04816	200
61	16067	75.11544	0
62	16049	75.07192	0
62	16058	75.09168	536
62	16079	75.18584	0
62	16079	75.18584	1072
62	16097	75.27624	536
62	16097	75.27624	1608
62	16114	75.32288	1072
62	16114	75.32288	2144
62	16131	75.36952	1608
62	16131	75.36952	2680
62	16148	75.41616	2144
62	16148	75.41616	3216
62	16165	75.4628	2680
62	16165	75.4628	3752
62	16182	75.50944	3216
62	16182	75.50944	4288
62	16199	75.55608	3752
62	16199	75.55608	4824
62	16216	75.60272	4288
62	16216	75.60272	5360
62	16233	75.64936	4824
62	16233	75.64936	5896
62	16250	75.696	5360
62	16250	75.696	6432
62	16267	75.74264	5896
62	16267	75.74264	6968
62	16284	75.78928	6432
62	16284	75.78928	7504
62	16301	75.83592	6968
62	16301	75.83592	7504
62	16316	75.88256	6968
62	16316	75.88256	7504
62	16331	75.9292	6968
62	16331	75.9292	7504
62	16346	75.97584	6968
62	16346	75.97584	7504
63	16055	75.09168	0
63	16079	75.18584	0
63	16097	75.27624	0
63	16114	75.32288	0
63	16131	75.36952	0
63	16148	75.41616	0
63	16165	75.4628	0
63	16182	75.50944	0
63	16199	75.55608	0
63	16216	75.60272	0
63	16233	75.64936	0
63	16250	75.696	0
63	16267	75.74264	0
63	16284	75.78928	0
63	16301	75.83592	0
63	16316	75.88256	0
63	16331	75.9292	0
63	16346	75.97584	0
64	16058	75.09168	18756021
64	16079	75.18584	18756557
64	16079	75.18584	18757093
64	16097	75.27624	18757629
64	16097	75.27624	18758165
64	16114	75.32288	18758701
64	16114	75.32288	18759237
64	16131	75.36952	18759773
64	16131	75.36952	18760309
64	16148	75.41616	18760845
64	16148	75.41616	18761381
64	16165	75.4628	18761917
64	16165	75.4628	18762453
64	16182	75.50944	18762989
64	16182	75.50944	18763525
64	16199	75.55608	18764061
64	16199	75.55608	18764597
64	16216	75.60272	18765133
64	16216	75.60272	18765669
64	16233	75.64936	18766205
64	16233	75.64936	18766741
64	16250	75.696	18767277
64	16250	75.696	18767813
64	16267	75.74264	18768349
64	16267	75.74264	18768885
64	16284	75.78928	18769421
64	16284	75.78928	18769957
64	16301	75.83592	18770493
64	16316	75.88256	18771029
64	16331	75.9292	18771565
64	16346	75.97584	18772101
65	16067	75.11544	0.06728
66	16067	75.11544	0.00841
67	16067	75.11544	0.66466
68	16067	75.11544	2.66705
69	16067	75.11544	1072
70	16067	75.11544	0
70	16071	75.16208	0
70	16089	75.25248	0
70	16106	75.29912	0
70	16123	75.34576	0
70	16140	75.3924	0
70	16157	75.43904	0
70	16174	75.48568	0
70	16191	75.53232	0
70	16208	75.57896	0
70	16225	75.6256	0
70	16242	75.67224	0
70	16259	75.71888	0
70	16276	75.76552	0
70	16293	75.81216	0
70	16308	75.8588	0
70	16323	75.90544	0
70	16338	75.95208	0
70	16353	75.99872	0
71	16079	75.18584	0.09416
71	16097	75.27624	0.0904
71	16131	75.36952	0.09328
71	16199	75.55608	0.18656
71	16331	75.9292	0.37312
72	16079	75.18584	0.01177
72	16097	75.27624	0.02159875
72	16131	75.36952	0.03055890625
72	16199	75.55608	0.050059042969
72	16331	75.9292	0.090441662598
73	16079	75.18584	0.66802
73	16097	75.27624	0.59434625
73	16131	75.36952	0.529013125
73	16199	75.55608	0.482386621094
73	16331	75.9292	0.462470913086
74	16079	75.18584	2.68385
74	16097	75.27624	2.39898375
74	16131	75.36952	2.14661140625
74	16199	75.55608	1.979605527345
74	16331	75.9292	1.940325314942
75	16079	75.18584	1072
75	16097	75.27624	1608
75	16114	75.32288	2144
75	16131	75.36952	2680
75	16148	75.41616	3216
75	16165	75.4628	3752
75	16182	75.50944	4288
75	16199	75.55608	4824
75	16216	75.60272	5360
75	16233	75.64936	5896
75	16250	75.696	6432
75	16267	75.74264	6968
75	16284	75.78928	7504
75	16301	75.83592	8040
75	16316	75.88256	8576
75	16331	75.9292	9112
75	16346	75.97584	9648

