version 2
run default_tcp-0-20190805-17:17:13-35056
attr configname default_tcp
attr datetime 20190805-17:17:13
attr experiment default_tcp
attr inifile omnetpp.ini
attr iterationvars ""
attr iterationvarsf ""
attr measurement ""
attr network networksim
attr processid 35056
attr repetition 0
attr replication #0
attr resultdir results
attr runnumber 0
attr seedset 0
param **.numApps 1
param **.queue.frameCapacity 50
param **.queue.queueName "\"DropTailQueue\""
param *.SN*.app[*].typename "\"SensorNode\""
param *.DF*.app[*].typename "\"DFNode\""
param *.M.app[*].typename "\"MasterNode\""
param *.SN1.app[*].connectAddress "\"DF1\""
param *.SN2.app[*].connectAddress "\"DF1\""
param *.SN3.app[*].connectAddress "\"DF2\""
param *.SN4.app[*].connectAddress "\"DF2\""
param **.app[*].thinkTime 0.2s
param **.app[*].idleInterval 0.1s

vector 0 networksim.SN1.ppp[0].queue queueLength:vector ETV
attr interpolationmode sample-hold
attr title "queue length, vector"
vector 1 networksim.SN1.ppp[0].ppp transmissionState:vector ETV
attr interpolationmode sample-hold
attr source transmissionStateChanged
attr title "tx state, vector"
vector 2 networksim.SN2.ppp[0].queue queueLength:vector ETV
attr interpolationmode sample-hold
attr title "queue length, vector"
vector 3 networksim.SN2.ppp[0].ppp transmissionState:vector ETV
attr interpolationmode sample-hold
attr source transmissionStateChanged
attr title "tx state, vector"
vector 4 networksim.DF1.ppp[0].queue queueLength:vector ETV
attr interpolationmode sample-hold
attr title "queue length, vector"
vector 5 networksim.DF1.ppp[0].ppp transmissionState:vector ETV
attr interpolationmode sample-hold
attr source transmissionStateChanged
attr title "tx state, vector"
vector 6 networksim.DF1.ppp[1].queue queueLength:vector ETV
attr interpolationmode sample-hold
attr title "queue length, vector"
vector 7 networksim.DF1.ppp[1].ppp transmissionState:vector ETV
attr interpolationmode sample-hold
attr source transmissionStateChanged
attr title "tx state, vector"
vector 8 networksim.SN3.ppp[0].queue queueLength:vector ETV
attr interpolationmode sample-hold
attr title "queue length, vector"
vector 9 networksim.SN3.ppp[0].ppp transmissionState:vector ETV
attr interpolationmode sample-hold
attr source transmissionStateChanged
attr title "tx state, vector"
vector 10 networksim.SN4.ppp[0].queue queueLength:vector ETV
attr interpolationmode sample-hold
attr title "queue length, vector"
vector 11 networksim.SN4.ppp[0].ppp transmissionState:vector ETV
attr interpolationmode sample-hold
attr source transmissionStateChanged
attr title "tx state, vector"
vector 12 networksim.DF2.ppp[0].queue queueLength:vector ETV
attr interpolationmode sample-hold
attr title "queue length, vector"
vector 13 networksim.DF2.ppp[0].ppp transmissionState:vector ETV
attr interpolationmode sample-hold
attr source transmissionStateChanged
attr title "tx state, vector"
vector 14 networksim.DF2.ppp[1].queue queueLength:vector ETV
attr interpolationmode sample-hold
attr title "queue length, vector"
vector 15 networksim.DF2.ppp[1].ppp transmissionState:vector ETV
attr interpolationmode sample-hold
attr source transmissionStateChanged
attr title "tx state, vector"
vector 16 networksim.SN1.tcp tcpRcvQueueBytes ETV
vector 17 networksim.SN1.tcp "advertised window" ETV
vector 18 networksim.SN1.tcp "receive window" ETV
vector 19 networksim.SN1.tcp "sent ack" ETV
vector 20 networksim.SN2.tcp tcpRcvQueueBytes ETV
vector 21 networksim.SN2.tcp "advertised window" ETV
vector 22 networksim.SN2.tcp "receive window" ETV
vector 23 networksim.SN2.tcp "sent ack" ETV
vector 24 networksim.SN3.tcp tcpRcvQueueBytes ETV
vector 25 networksim.SN3.tcp "advertised window" ETV
vector 26 networksim.SN3.tcp "receive window" ETV
vector 27 networksim.SN3.tcp "sent ack" ETV
vector 28 networksim.SN4.tcp tcpRcvQueueBytes ETV
vector 29 networksim.SN4.tcp "advertised window" ETV
vector 30 networksim.SN4.tcp "receive window" ETV
vector 31 networksim.SN4.tcp "sent ack" ETV
vector 32 networksim.SN1.ppp[0].queue packetReceived:vector(packetBytes) ETV
attr interpolationmode none
attr title "received packets, vector(packetBytes)"
vector 33 networksim.SN1.ppp[0].queue queueingTime:vector ETV
attr interpolationmode none
attr title "queueing time, vector"
vector 34 networksim.SN2.ppp[0].queue packetReceived:vector(packetBytes) ETV
attr interpolationmode none
attr title "received packets, vector(packetBytes)"
vector 35 networksim.SN2.ppp[0].queue queueingTime:vector ETV
attr interpolationmode none
attr title "queueing time, vector"
vector 36 networksim.SN3.ppp[0].queue packetReceived:vector(packetBytes) ETV
attr interpolationmode none
attr title "received packets, vector(packetBytes)"
vector 37 networksim.SN3.ppp[0].queue queueingTime:vector ETV
attr interpolationmode none
attr title "queueing time, vector"
vector 38 networksim.SN4.ppp[0].queue packetReceived:vector(packetBytes) ETV
attr interpolationmode none
attr title "received packets, vector(packetBytes)"
vector 39 networksim.SN4.ppp[0].queue queueingTime:vector ETV
attr interpolationmode none
attr title "queueing time, vector"
vector 40 networksim.SN1.ppp[0].ppp rcvdPkFromHl:vector(packetBytes) ETV
attr interpolationmode none
attr source packetReceivedFromUpper
attr title "packets received from higher layer, vector(packetBytes)"
vector 41 networksim.SN1.ppp[0].ppp txPk:vector(packetBytes) ETV
attr interpolationmode none
attr source packetSentToLower
attr title "packets transmitted, vector(packetBytes)"
vector 42 networksim.SN2.ppp[0].ppp rcvdPkFromHl:vector(packetBytes) ETV
attr interpolationmode none
attr source packetReceivedFromUpper
attr title "packets received from higher layer, vector(packetBytes)"
vector 43 networksim.SN2.ppp[0].ppp txPk:vector(packetBytes) ETV
attr interpolationmode none
attr source packetSentToLower
attr title "packets transmitted, vector(packetBytes)"
vector 44 networksim.SN3.ppp[0].ppp rcvdPkFromHl:vector(packetBytes) ETV
attr interpolationmode none
attr source packetReceivedFromUpper
attr title "packets received from higher layer, vector(packetBytes)"
vector 45 networksim.SN3.ppp[0].ppp txPk:vector(packetBytes) ETV
attr interpolationmode none
attr source packetSentToLower
attr title "packets transmitted, vector(packetBytes)"
vector 46 networksim.SN4.ppp[0].ppp rcvdPkFromHl:vector(packetBytes) ETV
attr interpolationmode none
attr source packetReceivedFromUpper
attr title "packets received from higher layer, vector(packetBytes)"
vector 47 networksim.SN4.ppp[0].ppp txPk:vector(packetBytes) ETV
attr interpolationmode none
attr source packetSentToLower
attr title "packets transmitted, vector(packetBytes)"
vector 48 networksim.DF1.ppp[0].ppp rxPkOk:vector(packetBytes) ETV
attr interpolationmode none
attr source rxPkOk
attr title "packets received OK, vector(packetBytes)"
vector 49 networksim.DF1.ppp[0].ppp passedUpPk:vector(packetBytes) ETV
attr interpolationmode none
attr source packetSentToUpper
attr title "packets passed to higher layer, vector(packetBytes)"
vector 50 networksim.DF1.ppp[1].ppp rxPkOk:vector(packetBytes) ETV
attr interpolationmode none
attr source rxPkOk
attr title "packets received OK, vector(packetBytes)"
vector 51 networksim.DF1.ppp[1].ppp passedUpPk:vector(packetBytes) ETV
attr interpolationmode none
attr source packetSentToUpper
attr title "packets passed to higher layer, vector(packetBytes)"
vector 52 networksim.DF2.ppp[0].ppp rxPkOk:vector(packetBytes) ETV
attr interpolationmode none
attr source rxPkOk
attr title "packets received OK, vector(packetBytes)"
vector 53 networksim.DF2.ppp[0].ppp passedUpPk:vector(packetBytes) ETV
attr interpolationmode none
attr source packetSentToUpper
attr title "packets passed to higher layer, vector(packetBytes)"
vector 54 networksim.DF2.ppp[1].ppp rxPkOk:vector(packetBytes) ETV
attr interpolationmode none
attr source rxPkOk
attr title "packets received OK, vector(packetBytes)"
vector 55 networksim.DF2.ppp[1].ppp passedUpPk:vector(packetBytes) ETV
attr interpolationmode none
attr source packetSentToUpper
attr title "packets passed to higher layer, vector(packetBytes)"
vector 56 networksim.DF1.tcp "rcvd seq" ETV
vector 57 networksim.DF1.tcp "rcvd ack" ETV
vector 58 networksim.DF1.tcp "advertised window" ETV
vector 59 networksim.DF1.tcp "send window" ETV
vector 60 networksim.DF1.tcp tcpRcvQueueBytes ETV
vector 61 networksim.DF1.tcp "receive window" ETV
vector 62 networksim.DF1.tcp "sent ack" ETV
vector 63 networksim.DF1.tcp "rcvd seq" ETV
vector 64 networksim.DF1.tcp "rcvd ack" ETV
vector 65 networksim.DF1.tcp "advertised window" ETV
vector 66 networksim.DF1.tcp "send window" ETV
vector 67 networksim.DF1.tcp tcpRcvQueueBytes ETV
vector 68 networksim.DF1.tcp "receive window" ETV
vector 69 networksim.DF1.tcp "sent ack" ETV
vector 70 networksim.DF2.tcp "rcvd seq" ETV
vector 71 networksim.DF2.tcp "rcvd ack" ETV
vector 72 networksim.DF2.tcp "advertised window" ETV
vector 73 networksim.DF2.tcp "send window" ETV
vector 74 networksim.DF2.tcp tcpRcvQueueBytes ETV
vector 75 networksim.DF2.tcp "receive window" ETV
vector 76 networksim.DF2.tcp "sent ack" ETV
vector 77 networksim.DF2.tcp "rcvd seq" ETV
vector 78 networksim.DF2.tcp "rcvd ack" ETV
vector 79 networksim.DF2.tcp "advertised window" ETV
vector 80 networksim.DF2.tcp "send window" ETV
vector 81 networksim.DF2.tcp tcpRcvQueueBytes ETV
vector 82 networksim.DF2.tcp "receive window" ETV
vector 83 networksim.DF2.tcp "sent ack" ETV
vector 84 networksim.DF1.ppp[0].queue packetReceived:vector(packetBytes) ETV
attr interpolationmode none
attr title "received packets, vector(packetBytes)"
vector 85 networksim.DF1.ppp[0].queue queueingTime:vector ETV
attr interpolationmode none
attr title "queueing time, vector"
vector 86 networksim.DF1.ppp[1].queue packetReceived:vector(packetBytes) ETV
attr interpolationmode none
attr title "received packets, vector(packetBytes)"
vector 87 networksim.DF1.ppp[1].queue queueingTime:vector ETV
attr interpolationmode none
attr title "queueing time, vector"
vector 88 networksim.DF2.ppp[0].queue packetReceived:vector(packetBytes) ETV
attr interpolationmode none
attr title "received packets, vector(packetBytes)"
vector 89 networksim.DF2.ppp[0].queue queueingTime:vector ETV
attr interpolationmode none
attr title "queueing time, vector"
vector 90 networksim.DF2.ppp[1].queue packetReceived:vector(packetBytes) ETV
attr interpolationmode none
attr title "received packets, vector(packetBytes)"
vector 91 networksim.DF2.ppp[1].queue queueingTime:vector ETV
attr interpolationmode none
attr title "queueing time, vector"
vector 92 networksim.DF1.ppp[0].ppp rcvdPkFromHl:vector(packetBytes) ETV
attr interpolationmode none
attr source packetReceivedFromUpper
attr title "packets received from higher layer, vector(packetBytes)"
vector 93 networksim.DF1.ppp[0].ppp txPk:vector(packetBytes) ETV
attr interpolationmode none
attr source packetSentToLower
attr title "packets transmitted, vector(packetBytes)"
vector 94 networksim.DF1.ppp[1].ppp rcvdPkFromHl:vector(packetBytes) ETV
attr interpolationmode none
attr source packetReceivedFromUpper
attr title "packets received from higher layer, vector(packetBytes)"
vector 95 networksim.DF1.ppp[1].ppp txPk:vector(packetBytes) ETV
attr interpolationmode none
attr source packetSentToLower
attr title "packets transmitted, vector(packetBytes)"
vector 96 networksim.DF2.ppp[0].ppp rcvdPkFromHl:vector(packetBytes) ETV
attr interpolationmode none
attr source packetReceivedFromUpper
attr title "packets received from higher layer, vector(packetBytes)"
vector 97 networksim.DF2.ppp[0].ppp txPk:vector(packetBytes) ETV
attr interpolationmode none
attr source packetSentToLower
attr title "packets transmitted, vector(packetBytes)"
vector 98 networksim.DF2.ppp[1].ppp rcvdPkFromHl:vector(packetBytes) ETV
attr interpolationmode none
attr source packetReceivedFromUpper
attr title "packets received from higher layer, vector(packetBytes)"
vector 99 networksim.DF2.ppp[1].ppp txPk:vector(packetBytes) ETV
attr interpolationmode none
attr source packetSentToLower
attr title "packets transmitted, vector(packetBytes)"
vector 100 networksim.SN1.ppp[0].ppp rxPkOk:vector(packetBytes) ETV
attr interpolationmode none
attr source rxPkOk
attr title "packets received OK, vector(packetBytes)"
vector 101 networksim.SN1.ppp[0].ppp passedUpPk:vector(packetBytes) ETV
attr interpolationmode none
attr source packetSentToUpper
attr title "packets passed to higher layer, vector(packetBytes)"
vector 102 networksim.SN2.ppp[0].ppp rxPkOk:vector(packetBytes) ETV
attr interpolationmode none
attr source rxPkOk
attr title "packets received OK, vector(packetBytes)"
vector 103 networksim.SN2.ppp[0].ppp passedUpPk:vector(packetBytes) ETV
attr interpolationmode none
attr source packetSentToUpper
attr title "packets passed to higher layer, vector(packetBytes)"
vector 104 networksim.SN3.ppp[0].ppp rxPkOk:vector(packetBytes) ETV
attr interpolationmode none
attr source rxPkOk
attr title "packets received OK, vector(packetBytes)"
vector 105 networksim.SN3.ppp[0].ppp passedUpPk:vector(packetBytes) ETV
attr interpolationmode none
attr source packetSentToUpper
attr title "packets passed to higher layer, vector(packetBytes)"
vector 106 networksim.SN4.ppp[0].ppp rxPkOk:vector(packetBytes) ETV
attr interpolationmode none
attr source rxPkOk
attr title "packets received OK, vector(packetBytes)"
vector 107 networksim.SN4.ppp[0].ppp passedUpPk:vector(packetBytes) ETV
attr interpolationmode none
attr source packetSentToUpper
attr title "packets passed to higher layer, vector(packetBytes)"
vector 108 networksim.SN1.tcp "rcvd seq" ETV
vector 109 networksim.SN1.tcp "rcvd ack" ETV
vector 110 networksim.SN1.tcp "send window" ETV
vector 111 networksim.SN2.tcp "rcvd seq" ETV
vector 112 networksim.SN2.tcp "rcvd ack" ETV
vector 113 networksim.SN2.tcp "send window" ETV
vector 114 networksim.SN3.tcp "rcvd seq" ETV
vector 115 networksim.SN3.tcp "rcvd ack" ETV
vector 116 networksim.SN3.tcp "send window" ETV
vector 117 networksim.SN4.tcp "rcvd seq" ETV
vector 118 networksim.SN4.tcp "rcvd ack" ETV
vector 119 networksim.SN4.tcp "send window" ETV
vector 120 networksim.SN1.tcp "sent seq" ETV
vector 121 networksim.SN1.tcp "unacked bytes" ETV
vector 122 networksim.SN2.tcp "sent seq" ETV
vector 123 networksim.SN2.tcp "unacked bytes" ETV
vector 124 networksim.SN3.tcp "sent seq" ETV
vector 125 networksim.SN3.tcp "unacked bytes" ETV
vector 126 networksim.SN4.tcp "sent seq" ETV
vector 127 networksim.SN4.tcp "unacked bytes" ETV
vector 128 networksim.DF1.tcp "unacked bytes" ETV
vector 129 networksim.DF1.tcp "unacked bytes" ETV
vector 130 networksim.DF2.tcp "unacked bytes" ETV
vector 131 networksim.DF2.tcp "unacked bytes" ETV
vector 132 networksim.DF1.tcp "rcvd dupAcks" ETV
vector 133 networksim.DF1.tcp "rcvd dupAcks" ETV
vector 134 networksim.DF2.tcp "rcvd dupAcks" ETV
vector 135 networksim.DF2.tcp "rcvd dupAcks" ETV
vector 136 networksim.DF1.tcp "sent seq" ETV
vector 137 networksim.DF1.tcp "sent seq" ETV
vector 138 networksim.DF2.tcp "sent seq" ETV
vector 139 networksim.DF2.tcp "sent seq" ETV
vector 140 networksim.SN1.tcp "measured RTT" ETV
vector 141 networksim.SN1.tcp "smoothed RTT" ETV
vector 142 networksim.SN1.tcp RTTVAR ETV
vector 143 networksim.SN1.tcp RTO ETV
vector 144 networksim.SN1.tcp cwnd ETV
vector 145 networksim.SN1.tcp "rcvd dupAcks" ETV
vector 146 networksim.SN2.tcp "measured RTT" ETV
vector 147 networksim.SN2.tcp "smoothed RTT" ETV
vector 148 networksim.SN2.tcp RTTVAR ETV
vector 149 networksim.SN2.tcp RTO ETV
vector 150 networksim.SN2.tcp cwnd ETV
vector 151 networksim.SN2.tcp "rcvd dupAcks" ETV
vector 152 networksim.SN3.tcp "measured RTT" ETV
vector 153 networksim.SN3.tcp "smoothed RTT" ETV
vector 154 networksim.SN3.tcp RTTVAR ETV
vector 155 networksim.SN3.tcp RTO ETV
vector 156 networksim.SN3.tcp cwnd ETV
vector 157 networksim.SN3.tcp "rcvd dupAcks" ETV
vector 158 networksim.SN4.tcp "measured RTT" ETV
vector 159 networksim.SN4.tcp "smoothed RTT" ETV
vector 160 networksim.SN4.tcp RTTVAR ETV
vector 161 networksim.SN4.tcp RTO ETV
vector 162 networksim.SN4.tcp cwnd ETV
vector 163 networksim.SN4.tcp "rcvd dupAcks" ETV
vector 164 networksim.DF1.tcp "measured RTT" ETV
vector 165 networksim.DF1.tcp "smoothed RTT" ETV
vector 166 networksim.DF1.tcp RTTVAR ETV
vector 167 networksim.DF1.tcp RTO ETV
vector 168 networksim.DF1.tcp cwnd ETV
vector 169 networksim.DF1.tcp "measured RTT" ETV
vector 170 networksim.DF1.tcp "smoothed RTT" ETV
vector 171 networksim.DF1.tcp RTTVAR ETV
vector 172 networksim.DF1.tcp RTO ETV
vector 173 networksim.DF1.tcp cwnd ETV
vector 174 networksim.DF2.tcp "measured RTT" ETV
vector 175 networksim.DF2.tcp "smoothed RTT" ETV
vector 176 networksim.DF2.tcp RTTVAR ETV
vector 177 networksim.DF2.tcp RTO ETV
vector 178 networksim.DF2.tcp cwnd ETV
vector 179 networksim.DF2.tcp "measured RTT" ETV
vector 180 networksim.DF2.tcp "smoothed RTT" ETV
vector 181 networksim.DF2.tcp RTTVAR ETV
vector 182 networksim.DF2.tcp RTO ETV
vector 183 networksim.DF2.tcp cwnd ETV
0	0	0	0
0	91	1.04816	1
0	95	1.05192	0
1	0	0	0
1	19	1	1
1	23	1.00408	0
1	83	1.04816	1
1	95	1.05192	0
1	99	1.05192	1
1	103	1.07168	0
1	219	1.16208	1
1	223	1.16584	0
1	291	1.25248	1
1	295	1.25624	0
1	359	1.29912	1
1	363	1.30288	0
1	427	1.34576	1
1	431	1.34952	0
1	495	1.3924	1
1	499	1.39616	0
1	563	1.43904	1
1	567	1.4428	0
1	631	1.48568	1
1	635	1.48944	0
1	699	1.53232	1
1	703	1.53608	0
1	767	1.57896	1
1	771	1.58272	0
1	835	1.6256	1
1	839	1.62936	0
1	903	1.67224	1
1	907	1.676	0
1	971	1.71888	1
1	975	1.72264	0
1	1039	1.76552	1
1	1043	1.76928	0
1	1107	1.81216	1
1	1111	1.81592	0
1	1167	1.8588	1
1	1171	1.86256	0
1	1227	1.90544	1
1	1231	1.9092	0
1	1287	1.95208	1
1	1291	1.95584	0
1	1347	1.99872	1
1	1351	2.00248	0
1	1407	2.04536	1
1	1411	2.04912	0
1	1467	2.092	1
1	1471	2.09576	0
1	1527	2.13864	1
1	1531	2.1424	0
1	1587	2.18528	1
1	1591	2.18904	0
1	1647	2.23192	1
1	1651	2.23568	0
1	1707	2.27856	1
1	1711	2.28232	0
1	1767	2.3252	1
1	1771	2.32896	0
1	1827	2.37184	1
1	1831	2.3756	0
1	1887	2.41848	1
1	1891	2.42224	0
1	1947	2.46512	1
1	1951	2.46888	0
1	2007	2.51176	1
1	2011	2.51552	0
1	2067	2.5584	1
1	2071	2.56216	0
1	2127	2.60504	1
1	2131	2.6088	0
1	2187	2.65168	1
1	2191	2.65544	0
1	2247	2.69832	1
1	2251	2.70208	0
1	2307	2.74496	1
1	2311	2.74872	0
1	2367	2.7916	1
1	2371	2.79536	0
1	2427	2.83824	1
1	2431	2.842	0
1	2487	2.88488	1
1	2491	2.88864	0
1	2547	2.93152	1
1	2551	2.93528	0
1	2607	2.97816	1
1	2611	2.98192	0
1	2667	3.0248	1
1	2671	3.02856	0
1	2727	3.07144	1
1	2731	3.0752	0
1	2787	3.11808	1
1	2791	3.12184	0
1	2847	3.16472	1
1	2851	3.16848	0
1	2907	3.21136	1
1	2911	3.21512	0
1	2967	3.258	1
1	2971	3.26176	0
1	3027	3.30464	1
1	3031	3.3084	0
1	3087	3.35128	1
1	3091	3.35504	0
1	3147	3.39792	1
1	3151	3.40168	0
1	3207	3.44456	1
1	3211	3.44832	0
1	3267	3.4912	1
1	3271	3.49496	0
1	3327	3.53784	1
1	3331	3.5416	0
1	3387	3.58448	1
1	3391	3.58824	0
1	3447	3.63112	1
1	3451	3.63488	0
1	3507	3.67776	1
1	3511	3.68152	0
1	3567	3.7244	1
1	3571	3.72816	0
1	3627	3.77104	1
1	3631	3.7748	0
1	3687	3.81768	1
1	3691	3.82144	0
1	3747	3.86432	1
1	3751	3.86808	0
1	3807	3.91096	1
1	3811	3.91472	0
1	3867	3.9576	1
1	3871	3.96136	0
1	3927	4.00424	1
1	3931	4.008	0
1	3987	4.05088	1
1	3991	4.05464	0
1	4047	4.09752	1
1	4051	4.10128	0
1	4107	4.14416	1
1	4111	4.14792	0
1	4167	4.1908	1
1	4171	4.19456	0
1	4227	4.23744	1
1	4231	4.2412	0
1	4287	4.28408	1
1	4291	4.28784	0
1	4347	4.33072	1
1	4351	4.33448	0
1	4407	4.37736	1
1	4411	4.38112	0
1	4467	4.424	1
1	4471	4.42776	0
1	4527	4.47064	1
1	4531	4.4744	0
1	4587	4.51728	1
1	4591	4.52104	0
1	4647	4.56392	1
1	4651	4.56768	0
1	4707	4.61056	1
1	4711	4.61432	0
1	4767	4.6572	1
1	4771	4.66096	0
1	4827	4.70384	1
1	4831	4.7076	0
1	4887	4.75048	1
1	4891	4.75424	0
1	4947	4.79712	1
1	4951	4.80088	0
1	5007	4.84376	1
1	5011	4.84752	0
1	5067	4.8904	1
1	5071	4.89416	0
1	5127	4.93704	1
1	5131	4.9408	0
1	5187	4.98368	1
1	5191	4.98744	0
1	5247	5.03032	1
1	5251	5.03408	0
1	5307	5.07696	1
1	5311	5.08072	0
1	5367	5.1236	1
1	5371	5.12736	0
1	5427	5.17024	1
1	5431	5.174	0
1	5487	5.21688	1
1	5491	5.22064	0
1	5547	5.26352	1
1	5551	5.26728	0
1	5607	5.31016	1
1	5611	5.31392	0
1	5667	5.3568	1
1	5671	5.36056	0
1	5727	5.40344	1
1	5731	5.4072	0
1	5787	5.45008	1
1	5791	5.45384	0
1	5847	5.49672	1
1	5851	5.50048	0
1	5907	5.54336	1
1	5911	5.54712	0
1	5967	5.59	1
1	5971	5.59376	0
1	6027	5.63664	1
1	6031	5.6404	0
1	6087	5.68328	1
1	6091	5.68704	0
1	6147	5.72992	1
1	6151	5.73368	0
1	6207	5.77656	1
1	6211	5.78032	0
1	6267	5.8232	1
1	6271	5.82696	0
1	6327	5.86984	1
1	6331	5.8736	0
1	6387	5.91648	1
1	6391	5.92024	0
1	6447	5.96312	1
1	6451	5.96688	0
1	6507	6.00976	1
1	6511	6.01352	0
1	6567	6.0564	1
1	6571	6.06016	0
1	6627	6.10304	1
1	6631	6.1068	0
1	6687	6.14968	1
1	6691	6.15344	0
1	6747	6.19632	1
1	6751	6.20008	0
1	6807	6.24296	1
1	6811	6.24672	0
1	6867	6.2896	1
1	6871	6.29336	0
1	6927	6.33624	1
1	6931	6.34	0
1	6987	6.38288	1
1	6991	6.38664	0
1	7047	6.42952	1
1	7051	6.43328	0
1	7107	6.47616	1
1	7111	6.47992	0
1	7167	6.5228	1
1	7171	6.52656	0
1	7227	6.56944	1
1	7231	6.5732	0
1	7287	6.61608	1
1	7291	6.61984	0
1	7347	6.66272	1
1	7351	6.66648	0
1	7407	6.70936	1
1	7411	6.71312	0
1	7467	6.756	1
1	7471	6.75976	0
1	7527	6.80264	1
1	7531	6.8064	0
1	7587	6.84928	1
1	7591	6.85304	0
1	7647	6.89592	1
1	7651	6.89968	0
1	7707	6.94256	1
1	7711	6.94632	0
1	7767	6.9892	1
1	7771	6.99296	0
1	7827	7.03584	1
1	7831	7.0396	0
1	7887	7.08248	1
1	7891	7.08624	0
1	7947	7.12912	1
1	7951	7.13288	0
1	8007	7.17576	1
1	8011	7.17952	0
1	8067	7.2224	1
1	8071	7.22616	0
1	8127	7.26904	1
1	8131	7.2728	0
1	8187	7.31568	1
1	8191	7.31944	0
1	8247	7.36232	1
1	8251	7.36608	0
1	8307	7.40896	1
1	8311	7.41272	0
1	8367	7.4556	1
1	8371	7.45936	0
1	8427	7.50224	1
1	8431	7.506	0
1	8487	7.54888	1
1	8491	7.55264	0
1	8547	7.59552	1
1	8551	7.59928	0
1	8607	7.64216	1
1	8611	7.64592	0
1	8667	7.6888	1
1	8671	7.69256	0
1	8727	7.73544	1
1	8731	7.7392	0
1	8787	7.78208	1
1	8791	7.78584	0
1	8847	7.82872	1
1	8851	7.83248	0
1	8907	7.87536	1
1	8911	7.87912	0
1	8967	7.922	1
1	8971	7.92576	0
1	9027	7.96864	1
1	9031	7.9724	0
1	9087	8.01528	1
1	9091	8.01904	0
1	9147	8.06192	1
1	9151	8.06568	0
1	9207	8.10856	1
1	9211	8.11232	0
1	9267	8.1552	1
1	9271	8.15896	0
1	9327	8.20184	1
1	9331	8.2056	0
1	9387	8.24848	1
1	9391	8.25224	0
1	9447	8.29512	1
1	9451	8.29888	0
1	9507	8.34176	1
1	9511	8.34552	0
1	9567	8.3884	1
1	9571	8.39216	0
1	9627	8.43504	1
1	9631	8.4388	0
1	9687	8.48168	1
1	9691	8.48544	0
1	9747	8.52832	1
1	9751	8.53208	0
1	9807	8.57496	1
1	9811	8.57872	0
1	9867	8.6216	1
1	9871	8.62536	0
1	9927	8.66824	1
1	9931	8.672	0
1	9987	8.71488	1
1	9991	8.71864	0
1	10047	8.76152	1
1	10051	8.76528	0
1	10107	8.80816	1
1	10111	8.81192	0
1	10167	8.8548	1
1	10171	8.85856	0
1	10227	8.90144	1
1	10231	8.9052	0
1	10287	8.94808	1
1	10291	8.95184	0
1	10347	8.99472	1
1	10351	8.99848	0
1	10407	9.04136	1
1	10411	9.04512	0
1	10467	9.088	1
1	10471	9.09176	0
1	10527	9.13464	1
1	10531	9.1384	0
1	10587	9.18128	1
1	10591	9.18504	0
1	10647	9.22792	1
1	10651	9.23168	0
1	10707	9.27456	1
1	10711	9.27832	0
1	10767	9.3212	1
1	10771	9.32496	0
1	10827	9.36784	1
1	10831	9.3716	0
1	10887	9.41448	1
1	10891	9.41824	0
1	10947	9.46112	1
1	10951	9.46488	0
1	11007	9.50776	1
1	11011	9.51152	0
1	11067	9.5544	1
1	11071	9.55816	0
1	11127	9.60104	1
1	11131	9.6048	0
1	11187	9.64768	1
1	11191	9.65144	0
1	11247	9.69432	1
1	11251	9.69808	0
1	11307	9.74096	1
1	11311	9.74472	0
1	11367	9.7876	1
1	11371	9.79136	0
1	11427	9.83424	1
1	11431	9.838	0
1	11487	9.88088	1
1	11491	9.88464	0
1	11547	9.92752	1
1	11551	9.93128	0
1	11607	9.97416	1
1	11611	9.97792	0
1	11667	10.0208	1
1	11671	10.02456	0
1	11727	10.06744	1
1	11731	10.0712	0
1	11787	10.11408	1
1	11791	10.11784	0
1	11847	10.16072	1
1	11851	10.16448	0
1	11907	10.20736	1
1	11911	10.21112	0
1	11967	10.254	1
1	11971	10.25776	0
1	12027	10.30064	1
1	12031	10.3044	0
1	12087	10.34728	1
1	12091	10.35104	0
1	12147	10.39392	1
1	12151	10.39768	0
1	12207	10.44056	1
1	12211	10.44432	0
1	12267	10.4872	1
1	12271	10.49096	0
1	12327	10.53384	1
1	12331	10.5376	0
1	12387	10.58048	1
1	12391	10.58424	0
1	12447	10.62712	1
1	12451	10.63088	0
1	12507	10.67376	1
1	12511	10.67752	0
1	12567	10.7204	1
1	12571	10.72416	0
1	12627	10.76704	1
1	12631	10.7708	0
1	12687	10.81368	1
1	12691	10.81744	0
1	12747	10.86032	1
1	12751	10.86408	0
1	12807	10.90696	1
1	12811	10.91072	0
1	12867	10.9536	1
1	12871	10.95736	0
1	12927	11.00024	1
1	12931	11.004	0
1	12987	11.04688	1
1	12991	11.05064	0
1	13047	11.09352	1
1	13051	11.09728	0
1	13107	11.14016	1
1	13111	11.14392	0
1	13167	11.1868	1
1	13171	11.19056	0
1	13227	11.23344	1
1	13231	11.2372	0
1	13287	11.28008	1
1	13291	11.28384	0
1	13347	11.32672	1
1	13351	11.33048	0
1	13407	11.37336	1
1	13411	11.37712	0
1	13467	11.42	1
1	13471	11.42376	0
1	13527	11.46664	1
1	13531	11.4704	0
1	13587	11.51328	1
1	13591	11.51704	0
1	13647	11.55992	1
1	13651	11.56368	0
1	13707	11.60656	1
1	13711	11.61032	0
1	13767	11.6532	1
1	13771	11.65696	0
1	13827	11.69984	1
1	13831	11.7036	0
1	13887	11.74648	1
1	13891	11.75024	0
1	13947	11.79312	1
1	13951	11.79688	0
1	14007	11.83976	1
1	14011	11.84352	0
1	14067	11.8864	1
1	14071	11.89016	0
1	14127	11.93304	1
1	14131	11.9368	0
1	14187	11.97968	1
1	14191	11.98344	0
1	14247	12.02632	1
1	14251	12.03008	0
1	14307	12.07296	1
1	14311	12.07672	0
1	14367	12.1196	1
1	14371	12.12336	0
1	14427	12.16624	1
1	14431	12.17	0
1	14487	12.21288	1
1	14491	12.21664	0
1	14547	12.25952	1
1	14551	12.26328	0
1	14607	12.30616	1
1	14611	12.30992	0
1	14667	12.3528	1
1	14671	12.35656	0
1	14727	12.39944	1
1	14731	12.4032	0
1	14787	12.44608	1
1	14791	12.44984	0
1	14847	12.49272	1
1	14851	12.49648	0
1	14907	12.53936	1
1	14911	12.54312	0
1	14967	12.586	1
1	14971	12.58976	0
1	15027	12.63264	1
1	15031	12.6364	0
1	15087	12.67928	1
1	15091	12.68304	0
1	15147	12.72592	1
1	15151	12.72968	0
1	15207	12.77256	1
1	15211	12.77632	0
1	15267	12.8192	1
1	15271	12.82296	0
1	15327	12.86584	1
1	15331	12.8696	0
1	15387	12.91248	1
1	15391	12.91624	0
1	15447	12.95912	1
1	15451	12.96288	0
1	15507	13.00576	1
1	15511	13.00952	0
1	15567	13.0524	1
1	15571	13.05616	0
1	15627	13.09904	1
1	15631	13.1028	0
1	15687	13.14568	1
1	15691	13.14944	0
1	15747	13.19232	1
1	15751	13.19608	0
1	15807	13.23896	1
1	15811	13.24272	0
1	15867	13.2856	1
1	15871	13.28936	0
1	15927	13.33224	1
1	15931	13.336	0
1	15987	13.37888	1
1	15991	13.38264	0
1	16047	13.42552	1
1	16051	13.42928	0
1	16107	13.47216	1
1	16111	13.47592	0
1	16167	13.5188	1
1	16171	13.52256	0
1	16227	13.56544	1
1	16231	13.5692	0
1	16287	13.61208	1
1	16291	13.61584	0
1	16347	13.65872	1
1	16351	13.66248	0
1	16407	13.70536	1
1	16411	13.70912	0
1	16467	13.752	1
1	16471	13.75576	0
1	16527	13.79864	1
1	16531	13.8024	0
1	16587	13.84528	1
1	16591	13.84904	0
1	16647	13.89192	1
1	16651	13.89568	0
1	16707	13.93856	1
1	16711	13.94232	0
1	16767	13.9852	1
1	16771	13.98896	0
1	16827	14.03184	1
1	16831	14.0356	0
1	16887	14.07848	1
1	16891	14.08224	0
1	16947	14.12512	1
1	16951	14.12888	0
1	17007	14.17176	1
1	17011	14.17552	0
1	17067	14.2184	1
1	17071	14.22216	0
1	17127	14.26504	1
1	17131	14.2688	0
1	17187	14.31168	1
1	17191	14.31544	0
1	17247	14.35832	1
1	17251	14.36208	0
1	17307	14.40496	1
1	17311	14.40872	0
1	17367	14.4516	1
1	17371	14.45536	0
1	17427	14.49824	1
1	17431	14.502	0
1	17487	14.54488	1
1	17491	14.54864	0
1	17547	14.59152	1
1	17551	14.59528	0
1	17607	14.63816	1
1	17611	14.64192	0
1	17667	14.6848	1
1	17671	14.68856	0
1	17727	14.73144	1
1	17731	14.7352	0
1	17787	14.77808	1
1	17791	14.78184	0
1	17847	14.82472	1
1	17851	14.82848	0
1	17907	14.87136	1
1	17911	14.87512	0
1	17967	14.918	1
1	17971	14.92176	0
1	18027	14.96464	1
1	18031	14.9684	0
1	18087	15.01128	1
1	18091	15.01504	0
1	18147	15.05792	1
1	18151	15.06168	0
1	18207	15.10456	1
1	18211	15.10832	0
1	18267	15.1512	1
1	18271	15.15496	0
1	18327	15.19784	1
1	18331	15.2016	0
1	18387	15.24448	1
1	18391	15.24824	0
1	18447	15.29112	1
1	18451	15.29488	0
1	18507	15.33776	1
1	18511	15.34152	0
1	18567	15.3844	1
1	18571	15.38816	0
1	18627	15.43104	1
1	18631	15.4348	0
1	18687	15.47768	1
1	18691	15.48144	0
1	18747	15.52432	1
1	18751	15.52808	0
1	18807	15.57096	1
1	18811	15.57472	0
1	18867	15.6176	1
1	18871	15.62136	0
1	18927	15.66424	1
1	18931	15.668	0
1	18987	15.71088	1
1	18991	15.71464	0
1	19047	15.75752	1
1	19051	15.76128	0
1	19107	15.80416	1
1	19111	15.80792	0
1	19167	15.8508	1
1	19171	15.85456	0
1	19227	15.89744	1
1	19231	15.9012	0
1	19287	15.94408	1
1	19291	15.94784	0
1	19347	15.99072	1
1	19351	15.99448	0
1	19407	16.03736	1
1	19411	16.04112	0
1	19467	16.084	1
1	19471	16.08776	0
1	19527	16.13064	1
1	19531	16.1344	0
1	19587	16.17728	1
1	19591	16.18104	0
1	19647	16.22392	1
1	19651	16.22768	0
1	19707	16.27056	1
1	19711	16.27432	0
1	19767	16.3172	1
1	19771	16.32096	0
1	19827	16.36384	1
1	19831	16.3676	0
1	19887	16.41048	1
1	19891	16.41424	0
1	19947	16.45712	1
1	19951	16.46088	0
1	20007	16.50376	1
1	20011	16.50752	0
1	20067	16.5504	1
1	20071	16.55416	0
1	20127	16.59704	1
1	20131	16.6008	0
1	20187	16.64368	1
1	20191	16.64744	0
1	20247	16.69032	1
1	20251	16.69408	0
1	20307	16.73696	1
1	20311	16.74072	0
1	20367	16.7836	1
1	20371	16.78736	0
1	20427	16.83024	1
1	20431	16.834	0
1	20487	16.87688	1
1	20491	16.88064	0
1	20547	16.92352	1
1	20551	16.92728	0
1	20607	16.97016	1
1	20611	16.97392	0
1	20667	17.0168	1
1	20671	17.02056	0
1	20727	17.06344	1
1	20731	17.0672	0
1	20787	17.11008	1
1	20791	17.11384	0
1	20847	17.15672	1
1	20851	17.16048	0
1	20907	17.20336	1
1	20911	17.20712	0
1	20967	17.25	1
1	20971	17.25376	0
1	21027	17.29664	1
1	21031	17.3004	0
1	21087	17.34328	1
1	21091	17.34704	0
1	21147	17.38992	1
1	21151	17.39368	0
1	21207	17.43656	1
1	21211	17.44032	0
1	21267	17.4832	1
1	21271	17.48696	0
1	21327	17.52984	1
1	21331	17.5336	0
1	21387	17.57648	1
1	21391	17.58024	0
1	21447	17.62312	1
1	21451	17.62688	0
1	21507	17.66976	1
1	21511	17.67352	0
1	21567	17.7164	1
1	21571	17.72016	0
1	21627	17.76304	1
1	21631	17.7668	0
1	21687	17.80968	1
1	21691	17.81344	0
1	21747	17.85632	1
1	21751	17.86008	0
1	21807	17.90296	1
1	21811	17.90672	0
1	21867	17.9496	1
1	21871	17.95336	0
1	21927	17.99624	1
1	21931	18	0
1	21987	18.04288	1
1	21991	18.04664	0
1	22047	18.08952	1
1	22051	18.09328	0
1	22107	18.13616	1
1	22111	18.13992	0
1	22167	18.1828	1
1	22171	18.18656	0
1	22227	18.22944	1
1	22231	18.2332	0
1	22287	18.27608	1
1	22291	18.27984	0
1	22347	18.32272	1
1	22351	18.32648	0
1	22407	18.36936	1
1	22411	18.37312	0
1	22467	18.416	1
1	22471	18.41976	0
1	22527	18.46264	1
1	22531	18.4664	0
1	22587	18.50928	1
1	22591	18.51304	0
1	22647	18.55592	1
1	22651	18.55968	0
1	22707	18.60256	1
1	22711	18.60632	0
1	22767	18.6492	1
1	22771	18.65296	0
1	22827	18.69584	1
1	22831	18.6996	0
1	22887	18.74248	1
1	22891	18.74624	0
1	22947	18.78912	1
1	22951	18.79288	0
1	23007	18.83576	1
1	23011	18.83952	0
1	23067	18.8824	1
1	23071	18.88616	0
1	23127	18.92904	1
1	23131	18.9328	0
1	23187	18.97568	1
1	23191	18.97944	0
1	23247	19.02232	1
1	23251	19.02608	0
1	23307	19.06896	1
1	23311	19.07272	0
1	23367	19.1156	1
1	23371	19.11936	0
1	23427	19.16224	1
1	23431	19.166	0
1	23487	19.20888	1
1	23491	19.21264	0
1	23547	19.25552	1
1	23551	19.25928	0
1	23607	19.30216	1
1	23611	19.30592	0
1	23667	19.3488	1
1	23671	19.35256	0
1	23727	19.39544	1
1	23731	19.3992	0
1	23787	19.44208	1
1	23791	19.44584	0
1	23847	19.48872	1
1	23851	19.49248	0
1	23907	19.53536	1
1	23911	19.53912	0
1	23967	19.582	1
1	23971	19.58576	0
1	24027	19.62864	1
1	24031	19.6324	0
1	24087	19.67528	1
1	24091	19.67904	0
1	24147	19.72192	1
1	24151	19.72568	0
1	24207	19.76856	1
1	24211	19.77232	0
1	24267	19.8152	1
1	24271	19.81896	0
1	24327	19.86184	1
1	24331	19.8656	0
1	24387	19.90848	1
1	24391	19.91224	0
1	24447	19.95512	1
1	24451	19.95888	0
1	24507	20.00176	1
1	24511	20.00552	0
1	24567	20.0484	1
1	24571	20.05216	0
1	24627	20.09504	1
1	24631	20.0988	0
1	24687	20.14168	1
1	24691	20.14544	0
1	24747	20.18832	1
1	24751	20.19208	0
1	24807	20.23496	1
1	24811	20.23872	0
1	24867	20.2816	1
1	24871	20.28536	0
1	24927	20.32824	1
1	24931	20.332	0
1	24987	20.37488	1
1	24991	20.37864	0
1	25047	20.42152	1
1	25051	20.42528	0
1	25107	20.46816	1
1	25111	20.47192	0
1	25167	20.5148	1
1	25171	20.51856	0
1	25227	20.56144	1
1	25231	20.5652	0
1	25287	20.60808	1
1	25291	20.61184	0
1	25347	20.65472	1
1	25351	20.65848	0
1	25407	20.70136	1
1	25411	20.70512	0
1	25467	20.748	1
1	25471	20.75176	0
1	25527	20.79464	1
1	25531	20.7984	0
1	25587	20.84128	1
1	25591	20.84504	0
1	25647	20.88792	1
1	25651	20.89168	0
1	25707	20.93456	1
1	25711	20.93832	0
1	25767	20.9812	1
1	25771	20.98496	0
1	25827	21.02784	1
1	25831	21.0316	0
1	25887	21.07448	1
1	25891	21.07824	0
1	25947	21.12112	1
1	25951	21.12488	0
1	26007	21.16776	1
1	26011	21.17152	0
1	26067	21.2144	1
1	26071	21.21816	0
1	26127	21.26104	1
1	26131	21.2648	0
1	26187	21.30768	1
1	26191	21.31144	0
1	26247	21.35432	1
1	26251	21.35808	0
1	26307	21.40096	1
1	26311	21.40472	0
1	26367	21.4476	1
1	26371	21.45136	0
1	26427	21.49424	1
1	26431	21.498	0
1	26487	21.54088	1
1	26491	21.54464	0
1	26547	21.58752	1
1	26551	21.59128	0
1	26607	21.63416	1
1	26611	21.63792	0
1	26667	21.6808	1
1	26671	21.68456	0
1	26727	21.72744	1
1	26731	21.7312	0
1	26787	21.77408	1
1	26791	21.77784	0
1	26847	21.82072	1
1	26851	21.82448	0
1	26907	21.86736	1
1	26911	21.87112	0
1	26967	21.914	1
1	26971	21.91776	0
1	27027	21.96064	1
1	27031	21.9644	0
1	27087	22.00728	1
1	27091	22.01104	0
1	27147	22.05392	1
1	27151	22.05768	0
1	27207	22.10056	1
1	27211	22.10432	0
1	27267	22.1472	1
1	27271	22.15096	0
1	27327	22.19384	1
1	27331	22.1976	0
1	27387	22.24048	1
1	27391	22.24424	0
1	27447	22.28712	1
1	27451	22.29088	0
1	27507	22.33376	1
1	27511	22.33752	0
1	27567	22.3804	1
1	27571	22.38416	0
1	27627	22.42704	1
1	27631	22.4308	0
1	27687	22.47368	1
1	27691	22.47744	0
1	27747	22.52032	1
1	27751	22.52408	0
1	27807	22.56696	1
1	27811	22.57072	0
1	27867	22.6136	1
1	27871	22.61736	0
1	27927	22.66024	1
1	27931	22.664	0
1	27987	22.70688	1
1	27991	22.71064	0
1	28047	22.75352	1
1	28051	22.75728	0
1	28107	22.80016	1
1	28111	22.80392	0
1	28167	22.8468	1
1	28171	22.85056	0
1	28227	22.89344	1
1	28231	22.8972	0
1	28287	22.94008	1
1	28291	22.94384	0
1	28347	22.98672	1
1	28351	22.99048	0
1	28407	23.03336	1
1	28411	23.03712	0
1	28467	23.08	1
1	28471	23.08376	0
1	28527	23.12664	1
1	28531	23.1304	0
1	28587	23.17328	1
1	28591	23.17704	0
1	28647	23.21992	1
1	28651	23.22368	0
1	28707	23.26656	1
1	28711	23.27032	0
1	28767	23.3132	1
1	28771	23.31696	0
1	28827	23.35984	1
1	28831	23.3636	0
1	28887	23.40648	1
1	28891	23.41024	0
1	28947	23.45312	1
1	28951	23.45688	0
1	29007	23.49976	1
1	29011	23.50352	0
1	29067	23.5464	1
1	29071	23.55016	0
1	29127	23.59304	1
1	29131	23.5968	0
1	29187	23.63968	1
1	29191	23.64344	0
1	29247	23.68632	1
1	29251	23.69008	0
1	29307	23.73296	1
1	29311	23.73672	0
1	29367	23.7796	1
1	29371	23.78336	0
1	29427	23.82624	1
1	29431	23.83	0
1	29487	23.87288	1
1	29491	23.87664	0
1	29547	23.91952	1
1	29551	23.92328	0
1	29607	23.96616	1
1	29611	23.96992	0
1	29667	24.0128	1
1	29671	24.01656	0
1	29727	24.05944	1
1	29731	24.0632	0
1	29787	24.10608	1
1	29791	24.10984	0
1	29847	24.15272	1
1	29851	24.15648	0
1	29907	24.19936	1
1	29911	24.20312	0
1	29967	24.246	1
1	29971	24.24976	0
1	30027	24.29264	1
1	30031	24.2964	0
1	30087	24.33928	1
1	30091	24.34304	0
1	30147	24.38592	1
1	30151	24.38968	0
1	30207	24.43256	1
1	30211	24.43632	0
1	30267	24.4792	1
1	30271	24.48296	0
1	30327	24.52584	1
1	30331	24.5296	0
1	30387	24.57248	1
1	30391	24.57624	0
1	30447	24.61912	1
1	30451	24.62288	0
1	30507	24.66576	1
1	30511	24.66952	0
1	30567	24.7124	1
1	30571	24.71616	0
1	30627	24.75904	1
1	30631	24.7628	0
1	30687	24.80568	1
1	30691	24.80944	0
1	30747	24.85232	1
1	30751	24.85608	0
1	30807	24.89896	1
1	30811	24.90272	0
1	30867	24.9456	1
1	30871	24.94936	0
1	30927	24.99224	1
1	30931	24.996	0
1	30987	25.03888	1
1	30991	25.04264	0
1	31047	25.08552	1
1	31051	25.08928	0
1	31107	25.13216	1
1	31111	25.13592	0
1	31167	25.1788	1
1	31171	25.18256	0
1	31227	25.22544	1
1	31231	25.2292	0
1	31287	25.27208	1
1	31291	25.27584	0
1	31347	25.31872	1
1	31351	25.32248	0
1	31407	25.36536	1
1	31411	25.36912	0
1	31467	25.412	1
1	31471	25.41576	0
1	31527	25.45864	1
1	31531	25.4624	0
1	31587	25.50528	1
1	31591	25.50904	0
1	31647	25.55192	1
1	31651	25.55568	0
1	31707	25.59856	1
1	31711	25.60232	0
1	31767	25.6452	1
1	31771	25.64896	0
1	31827	25.69184	1
1	31831	25.6956	0
1	31887	25.73848	1
1	31891	25.74224	0
1	31947	25.78512	1
1	31951	25.78888	0
1	32007	25.83176	1
1	32011	25.83552	0
1	32067	25.8784	1
1	32071	25.88216	0
1	32127	25.92504	1
1	32131	25.9288	0
1	32187	25.97168	1
1	32191	25.97544	0
1	32247	26.01832	1
1	32251	26.02208	0
1	32307	26.06496	1
1	32311	26.06872	0
1	32367	26.1116	1
1	32371	26.11536	0
1	32427	26.15824	1
1	32431	26.162	0
1	32487	26.20488	1
1	32491	26.20864	0
1	32547	26.25152	1
1	32551	26.25528	0
1	32607	26.29816	1
1	32611	26.30192	0
1	32667	26.3448	1
1	32671	26.34856	0
1	32727	26.39144	1
1	32731	26.3952	0
1	32787	26.43808	1
1	32791	26.44184	0
1	32847	26.48472	1
1	32851	26.48848	0
1	32907	26.53136	1
1	32911	26.53512	0
1	32967	26.578	1
1	32971	26.58176	0
1	33027	26.62464	1
1	33031	26.6284	0
1	33087	26.67128	1
1	33091	26.67504	0
1	33147	26.71792	1
1	33151	26.72168	0
1	33207	26.76456	1
1	33211	26.76832	0
1	33267	26.8112	1
1	33271	26.81496	0
1	33327	26.85784	1
1	33331	26.8616	0
1	33387	26.90448	1
1	33391	26.90824	0
1	33447	26.95112	1
1	33451	26.95488	0
1	33507	26.99776	1
1	33511	27.00152	0
1	33567	27.0444	1
1	33571	27.04816	0
1	33627	27.09104	1
1	33631	27.0948	0
1	33687	27.13768	1
1	33691	27.14144	0
1	33747	27.18432	1
1	33751	27.18808	0
1	33807	27.23096	1
1	33811	27.23472	0
1	33867	27.2776	1
1	33871	27.28136	0
1	33927	27.32424	1
1	33931	27.328	0
1	33987	27.37088	1
1	33991	27.37464	0
1	34047	27.41752	1
1	34051	27.42128	0
1	34107	27.46416	1
1	34111	27.46792	0
1	34167	27.5108	1
1	34171	27.51456	0
1	34227	27.55744	1
1	34231	27.5612	0
1	34287	27.60408	1
1	34291	27.60784	0
1	34347	27.65072	1
1	34351	27.65448	0
1	34407	27.69736	1
1	34411	27.70112	0
1	34467	27.744	1
1	34471	27.74776	0
1	34527	27.79064	1
1	34531	27.7944	0
1	34587	27.83728	1
1	34591	27.84104	0
1	34647	27.88392	1
1	34651	27.88768	0
1	34707	27.93056	1
1	34711	27.93432	0
1	34767	27.9772	1
1	34771	27.98096	0
1	34827	28.02384	1
1	34831	28.0276	0
1	34887	28.07048	1
1	34891	28.07424	0
1	34947	28.11712	1
1	34951	28.12088	0
1	35007	28.16376	1
1	35011	28.16752	0
1	35067	28.2104	1
1	35071	28.21416	0
1	35127	28.25704	1
1	35131	28.2608	0
1	35187	28.30368	1
1	35191	28.30744	0
1	35247	28.35032	1
1	35251	28.35408	0
1	35307	28.39696	1
1	35311	28.40072	0
1	35367	28.4436	1
1	35371	28.44736	0
1	35427	28.49024	1
1	35431	28.494	0
1	35487	28.53688	1
1	35491	28.54064	0
1	35547	28.58352	1
1	35551	28.58728	0
1	35607	28.63016	1
1	35611	28.63392	0
1	35667	28.6768	1
1	35671	28.68056	0
1	35727	28.72344	1
1	35731	28.7272	0
1	35787	28.77008	1
1	35791	28.77384	0
1	35847	28.81672	1
1	35851	28.82048	0
1	35907	28.86336	1
1	35911	28.86712	0
1	35967	28.91	1
1	35971	28.91376	0
1	36027	28.95664	1
1	36031	28.9604	0
1	36087	29.00328	1
1	36091	29.00704	0
1	36147	29.04992	1
1	36151	29.05368	0
1	36207	29.09656	1
1	36211	29.10032	0
1	36267	29.1432	1
1	36271	29.14696	0
1	36327	29.18984	1
1	36331	29.1936	0
1	36387	29.23648	1
1	36391	29.24024	0
1	36447	29.28312	1
1	36451	29.28688	0
1	36507	29.32976	1
1	36511	29.33352	0
1	36567	29.3764	1
1	36571	29.38016	0
1	36627	29.42304	1
1	36631	29.4268	0
1	36687	29.46968	1
1	36691	29.47344	0
1	36747	29.51632	1
1	36751	29.52008	0
1	36807	29.56296	1
1	36811	29.56672	0
1	36867	29.6096	1
1	36871	29.61336	0
1	36927	29.65624	1
1	36931	29.66	0
1	36987	29.70288	1
1	36991	29.70664	0
1	37047	29.74952	1
1	37051	29.75328	0
1	37107	29.79616	1
1	37111	29.79992	0
1	37167	29.8428	1
1	37171	29.84656	0
1	37227	29.88944	1
1	37231	29.8932	0
1	37287	29.93608	1
1	37291	29.93984	0
1	37347	29.98272	1
1	37351	29.98648	0
1	37407	30.02936	1
1	37411	30.03312	0
1	37467	30.076	1
1	37471	30.07976	0
1	37527	30.12264	1
1	37531	30.1264	0
1	37587	30.16928	1
1	37591	30.17304	0
1	37647	30.21592	1
1	37651	30.21968	0
1	37707	30.26256	1
1	37711	30.26632	0
1	37767	30.3092	1
1	37771	30.31296	0
1	37827	30.35584	1
1	37831	30.3596	0
1	37887	30.40248	1
1	37891	30.40624	0
1	37947	30.44912	1
1	37951	30.45288	0
1	38007	30.49576	1
1	38011	30.49952	0
1	38067	30.5424	1
1	38071	30.54616	0
1	38127	30.58904	1
1	38131	30.5928	0
1	38187	30.63568	1
1	38191	30.63944	0
1	38247	30.68232	1
1	38251	30.68608	0
1	38307	30.72896	1
1	38311	30.73272	0
1	38367	30.7756	1
1	38371	30.77936	0
1	38427	30.82224	1
1	38431	30.826	0
1	38487	30.86888	1
1	38491	30.87264	0
1	38547	30.91552	1
1	38551	30.91928	0
1	38607	30.96216	1
1	38611	30.96592	0
1	38667	31.0088	1
1	38671	31.01256	0
1	38727	31.05544	1
1	38731	31.0592	0
1	38787	31.10208	1
1	38791	31.10584	0
1	38847	31.14872	1
1	38851	31.15248	0
1	38907	31.19536	1
1	38911	31.19912	0
1	38967	31.242	1
1	38971	31.24576	0
1	39027	31.28864	1
1	39031	31.2924	0
1	39087	31.33528	1
1	39091	31.33904	0
1	39147	31.38192	1
1	39151	31.38568	0
1	39207	31.42856	1
1	39211	31.43232	0
1	39267	31.4752	1
1	39271	31.47896	0
1	39327	31.52184	1
1	39331	31.5256	0
1	39387	31.56848	1
1	39391	31.57224	0
1	39447	31.61512	1
1	39451	31.61888	0
1	39507	31.66176	1
1	39511	31.66552	0
1	39567	31.7084	1
1	39571	31.71216	0
1	39627	31.75504	1
1	39631	31.7588	0
1	39687	31.80168	1
1	39691	31.80544	0
1	39747	31.84832	1
1	39751	31.85208	0
1	39807	31.89496	1
1	39811	31.89872	0
1	39867	31.9416	1
1	39871	31.94536	0
1	39927	31.98824	1
1	39931	31.992	0
1	39987	32.03488	1
1	39991	32.03864	0
1	40047	32.08152	1
1	40051	32.08528	0
1	40107	32.12816	1
1	40111	32.13192	0
1	40167	32.1748	1
1	40171	32.17856	0
1	40227	32.22144	1
1	40231	32.2252	0
1	40287	32.26808	1
1	40291	32.27184	0
1	40347	32.31472	1
1	40351	32.31848	0
1	40407	32.36136	1
1	40411	32.36512	0
1	40467	32.408	1
1	40471	32.41176	0
1	40527	32.45464	1
1	40531	32.4584	0
1	40587	32.50128	1
1	40591	32.50504	0
1	40647	32.54792	1
1	40651	32.55168	0
1	40707	32.59456	1
1	40711	32.59832	0
1	40767	32.6412	1
1	40771	32.64496	0
1	40827	32.68784	1
1	40831	32.6916	0
1	40887	32.73448	1
1	40891	32.73824	0
1	40947	32.78112	1
1	40951	32.78488	0
1	41007	32.82776	1
1	41011	32.83152	0
1	41067	32.8744	1
1	41071	32.87816	0
1	41127	32.92104	1
1	41131	32.9248	0
1	41187	32.96768	1
1	41191	32.97144	0
1	41247	33.01432	1
1	41251	33.01808	0
1	41307	33.06096	1
1	41311	33.06472	0
1	41367	33.1076	1
1	41371	33.11136	0
1	41427	33.15424	1
1	41431	33.158	0
1	41487	33.20088	1
1	41491	33.20464	0
1	41547	33.24752	1
1	41551	33.25128	0
1	41607	33.29416	1
1	41611	33.29792	0
1	41667	33.3408	1
1	41671	33.34456	0
1	41727	33.38744	1
1	41731	33.3912	0
1	41787	33.43408	1
1	41791	33.43784	0
1	41847	33.48072	1
1	41851	33.48448	0
1	41907	33.52736	1
1	41911	33.53112	0
1	41967	33.574	1
1	41971	33.57776	0
1	42027	33.62064	1
1	42031	33.6244	0
1	42087	33.66728	1
1	42091	33.67104	0
1	42147	33.71392	1
1	42151	33.71768	0
1	42207	33.76056	1
1	42211	33.76432	0
1	42267	33.8072	1
1	42271	33.81096	0
1	42327	33.85384	1
1	42331	33.8576	0
1	42387	33.90048	1
1	42391	33.90424	0
1	42447	33.94712	1
1	42451	33.95088	0
1	42507	33.99376	1
1	42511	33.99752	0
1	42567	34.0404	1
1	42571	34.04416	0
1	42627	34.08704	1
1	42631	34.0908	0
1	42687	34.13368	1
1	42691	34.13744	0
1	42747	34.18032	1
1	42751	34.18408	0
1	42807	34.22696	1
1	42811	34.23072	0
1	42867	34.2736	1
1	42871	34.27736	0
1	42927	34.32024	1
1	42931	34.324	0
1	42987	34.36688	1
1	42991	34.37064	0
1	43047	34.41352	1
1	43051	34.41728	0
1	43107	34.46016	1
1	43111	34.46392	0
1	43167	34.5068	1
1	43171	34.51056	0
1	43227	34.55344	1
1	43231	34.5572	0
1	43287	34.60008	1
1	43291	34.60384	0
1	43347	34.64672	1
1	43351	34.65048	0
1	43407	34.69336	1
1	43411	34.69712	0
1	43467	34.74	1
1	43471	34.74376	0
1	43527	34.78664	1
1	43531	34.7904	0
1	43587	34.83328	1
1	43591	34.83704	0
1	43647	34.87992	1
1	43651	34.88368	0
1	43707	34.92656	1
1	43711	34.93032	0
1	43767	34.9732	1
1	43771	34.97696	0
1	43827	35.01984	1
1	43831	35.0236	0
1	43887	35.06648	1
1	43891	35.07024	0
1	43947	35.11312	1
1	43951	35.11688	0
1	44007	35.15976	1
1	44011	35.16352	0
1	44067	35.2064	1
1	44071	35.21016	0
1	44127	35.25304	1
1	44131	35.2568	0
1	44187	35.29968	1
1	44191	35.30344	0
1	44247	35.34632	1
1	44251	35.35008	0
1	44307	35.39296	1
1	44311	35.39672	0
1	44367	35.4396	1
1	44371	35.44336	0
1	44427	35.48624	1
1	44431	35.49	0
1	44487	35.53288	1
1	44491	35.53664	0
1	44547	35.57952	1
1	44551	35.58328	0
1	44607	35.62616	1
1	44611	35.62992	0
1	44667	35.6728	1
1	44671	35.67656	0
1	44727	35.71944	1
1	44731	35.7232	0
1	44787	35.76608	1
1	44791	35.76984	0
1	44847	35.81272	1
1	44851	35.81648	0
1	44907	35.85936	1
1	44911	35.86312	0
1	44967	35.906	1
1	44971	35.90976	0
1	45027	35.95264	1
1	45031	35.9564	0
1	45087	35.99928	1
1	45091	36.00304	0
1	45147	36.04592	1
1	45151	36.04968	0
1	45207	36.09256	1
1	45211	36.09632	0
1	45267	36.1392	1
1	45271	36.14296	0
1	45327	36.18584	1
1	45331	36.1896	0
1	45387	36.23248	1
1	45391	36.23624	0
1	45447	36.27912	1
1	45451	36.28288	0
1	45507	36.32576	1
1	45511	36.32952	0
1	45567	36.3724	1
1	45571	36.37616	0
1	45627	36.41904	1
1	45631	36.4228	0
1	45687	36.46568	1
1	45691	36.46944	0
1	45747	36.51232	1
1	45751	36.51608	0
1	45807	36.55896	1
1	45811	36.56272	0
1	45867	36.6056	1
1	45871	36.60936	0
1	45927	36.65224	1
1	45931	36.656	0
1	45987	36.69888	1
1	45991	36.70264	0
1	46047	36.74552	1
1	46051	36.74928	0
1	46107	36.79216	1
1	46111	36.79592	0
1	46167	36.8388	1
1	46171	36.84256	0
1	46227	36.88544	1
1	46231	36.8892	0
1	46287	36.93208	1
1	46291	36.93584	0
1	46347	36.97872	1
1	46351	36.98248	0
1	46407	37.02536	1
1	46411	37.02912	0
1	46467	37.072	1
1	46471	37.07576	0
1	46527	37.11864	1
1	46531	37.1224	0
1	46587	37.16528	1
1	46591	37.16904	0
1	46647	37.21192	1
1	46651	37.21568	0
1	46707	37.25856	1
1	46711	37.26232	0
1	46767	37.3052	1
1	46771	37.30896	0
1	46827	37.35184	1
1	46831	37.3556	0
1	46887	37.39848	1
1	46891	37.40224	0
1	46947	37.44512	1
1	46951	37.44888	0
1	47007	37.49176	1
1	47011	37.49552	0
1	47067	37.5384	1
1	47071	37.54216	0
1	47127	37.58504	1
1	47131	37.5888	0
1	47187	37.63168	1
1	47191	37.63544	0
1	47247	37.67832	1
1	47251	37.68208	0
1	47307	37.72496	1
1	47311	37.72872	0
1	47367	37.7716	1
1	47371	37.77536	0
1	47427	37.81824	1
1	47431	37.822	0
1	47487	37.86488	1
1	47491	37.86864	0
1	47547	37.91152	1
1	47551	37.91528	0
1	47607	37.95816	1
1	47611	37.96192	0
1	47667	38.0048	1
1	47671	38.00856	0
1	47727	38.05144	1
1	47731	38.0552	0
1	47787	38.09808	1
1	47791	38.10184	0
1	47847	38.14472	1
1	47851	38.14848	0
1	47907	38.19136	1
1	47911	38.19512	0
1	47967	38.238	1
1	47971	38.24176	0
1	48027	38.28464	1
1	48031	38.2884	0
1	48087	38.33128	1
1	48091	38.33504	0
1	48147	38.37792	1
1	48151	38.38168	0
1	48207	38.42456	1
1	48211	38.42832	0
1	48267	38.4712	1
1	48271	38.47496	0
1	48327	38.51784	1
1	48331	38.5216	0
1	48387	38.56448	1
1	48391	38.56824	0
1	48447	38.61112	1
1	48451	38.61488	0
1	48507	38.65776	1
1	48511	38.66152	0
1	48567	38.7044	1
1	48571	38.70816	0
1	48627	38.75104	1
1	48631	38.7548	0
1	48687	38.79768	1
1	48691	38.80144	0
1	48747	38.84432	1
1	48751	38.84808	0
1	48807	38.89096	1
1	48811	38.89472	0
1	48867	38.9376	1
1	48871	38.94136	0
1	48927	38.98424	1
1	48931	38.988	0
1	48987	39.03088	1
1	48991	39.03464	0
1	49047	39.07752	1
1	49051	39.08128	0
1	49107	39.12416	1
1	49111	39.12792	0
1	49167	39.1708	1
1	49171	39.17456	0
1	49227	39.21744	1
1	49231	39.2212	0
1	49287	39.26408	1
1	49291	39.26784	0
1	49347	39.31072	1
1	49351	39.31448	0
1	49407	39.35736	1
1	49411	39.36112	0
1	49467	39.404	1
1	49471	39.40776	0
1	49527	39.45064	1
1	49531	39.4544	0
1	49587	39.49728	1
1	49591	39.50104	0
1	49647	39.54392	1
1	49651	39.54768	0
1	49707	39.59056	1
1	49711	39.59432	0
1	49767	39.6372	1
1	49771	39.64096	0
1	49827	39.68384	1
1	49831	39.6876	0
1	49887	39.73048	1
1	49891	39.73424	0
1	49947	39.77712	1
1	49951	39.78088	0
1	50007	39.82376	1
1	50011	39.82752	0
1	50067	39.8704	1
1	50071	39.87416	0
1	50127	39.91704	1
1	50131	39.9208	0
1	50187	39.96368	1
1	50191	39.96744	0
1	50247	40.01032	1
1	50251	40.01408	0
1	50307	40.05696	1
1	50311	40.06072	0
1	50367	40.1036	1
1	50371	40.10736	0
1	50427	40.15024	1
1	50431	40.154	0
1	50487	40.19688	1
1	50491	40.20064	0
1	50547	40.24352	1
1	50551	40.24728	0
1	50607	40.29016	1
1	50611	40.29392	0
1	50667	40.3368	1
1	50671	40.34056	0
1	50727	40.38344	1
1	50731	40.3872	0
1	50787	40.43008	1
1	50791	40.43384	0
1	50847	40.47672	1
1	50851	40.48048	0
1	50907	40.52336	1
1	50911	40.52712	0
1	50967	40.57	1
1	50971	40.57376	0
1	51027	40.61664	1
1	51031	40.6204	0
1	51087	40.66328	1
1	51091	40.66704	0
1	51147	40.70992	1
1	51151	40.71368	0
1	51207	40.75656	1
1	51211	40.76032	0
1	51267	40.8032	1
1	51271	40.80696	0
1	51327	40.84984	1
1	51331	40.8536	0
1	51387	40.89648	1
1	51391	40.90024	0
1	51447	40.94312	1
1	51451	40.94688	0
1	51507	40.98976	1
1	51511	40.99352	0
1	51567	41.0364	1
1	51571	41.04016	0
1	51627	41.08304	1
1	51631	41.0868	0
1	51687	41.12968	1
1	51691	41.13344	0
1	51747	41.17632	1
1	51751	41.18008	0
1	51807	41.22296	1
1	51811	41.22672	0
1	51867	41.2696	1
1	51871	41.27336	0
1	51927	41.31624	1
1	51931	41.32	0
1	51987	41.36288	1
1	51991	41.36664	0
1	52047	41.40952	1
1	52051	41.41328	0
1	52107	41.45616	1
1	52111	41.45992	0
1	52167	41.5028	1
1	52171	41.50656	0
1	52227	41.54944	1
1	52231	41.5532	0
1	52287	41.59608	1
1	52291	41.59984	0
1	52347	41.64272	1
1	52351	41.64648	0
1	52407	41.68936	1
1	52411	41.69312	0
1	52467	41.736	1
1	52471	41.73976	0
1	52527	41.78264	1
1	52531	41.7864	0
1	52587	41.82928	1
1	52591	41.83304	0
1	52647	41.87592	1
1	52651	41.87968	0
1	52707	41.92256	1
1	52711	41.92632	0
1	52767	41.9692	1
1	52771	41.97296	0
1	52827	42.01584	1
1	52831	42.0196	0
1	52887	42.06248	1
1	52891	42.06624	0
1	52947	42.10912	1
1	52951	42.11288	0
1	53007	42.15576	1
1	53011	42.15952	0
1	53067	42.2024	1
1	53071	42.20616	0
1	53127	42.24904	1
1	53131	42.2528	0
1	53187	42.29568	1
1	53191	42.29944	0
1	53247	42.34232	1
1	53251	42.34608	0
1	53307	42.38896	1
1	53311	42.39272	0
1	53367	42.4356	1
1	53371	42.43936	0
1	53427	42.48224	1
1	53431	42.486	0
1	53487	42.52888	1
1	53491	42.53264	0
1	53547	42.57552	1
1	53551	42.57928	0
1	53607	42.62216	1
1	53611	42.62592	0
1	53667	42.6688	1
1	53671	42.67256	0
1	53727	42.71544	1
1	53731	42.7192	0
1	53787	42.76208	1
1	53791	42.76584	0
1	53847	42.80872	1
1	53851	42.81248	0
1	53907	42.85536	1
1	53911	42.85912	0
1	53967	42.902	1
1	53971	42.90576	0
1	54027	42.94864	1
1	54031	42.9524	0
1	54087	42.99528	1
1	54091	42.99904	0
1	54147	43.04192	1
1	54151	43.04568	0
1	54207	43.08856	1
1	54211	43.09232	0
1	54267	43.1352	1
1	54271	43.13896	0
1	54327	43.18184	1
1	54331	43.1856	0
1	54387	43.22848	1
1	54391	43.23224	0
1	54447	43.27512	1
1	54451	43.27888	0
1	54507	43.32176	1
1	54511	43.32552	0
1	54567	43.3684	1
1	54571	43.37216	0
1	54627	43.41504	1
1	54631	43.4188	0
1	54687	43.46168	1
1	54691	43.46544	0
1	54747	43.50832	1
1	54751	43.51208	0
1	54807	43.55496	1
1	54811	43.55872	0
1	54867	43.6016	1
1	54871	43.60536	0
1	54927	43.64824	1
1	54931	43.652	0
1	54987	43.69488	1
1	54991	43.69864	0
1	55047	43.74152	1
1	55051	43.74528	0
1	55107	43.78816	1
1	55111	43.79192	0
1	55167	43.8348	1
1	55171	43.83856	0
1	55227	43.88144	1
1	55231	43.8852	0
1	55287	43.92808	1
1	55291	43.93184	0
1	55347	43.97472	1
1	55351	43.97848	0
1	55407	44.02136	1
1	55411	44.02512	0
1	55467	44.068	1
1	55471	44.07176	0
1	55527	44.11464	1
1	55531	44.1184	0
1	55587	44.16128	1
1	55591	44.16504	0
1	55647	44.20792	1
1	55651	44.21168	0
1	55707	44.25456	1
1	55711	44.25832	0
1	55767	44.3012	1
1	55771	44.30496	0
1	55827	44.34784	1
1	55831	44.3516	0
1	55887	44.39448	1
1	55891	44.39824	0
1	55947	44.44112	1
1	55951	44.44488	0
1	56007	44.48776	1
1	56011	44.49152	0
1	56067	44.5344	1
1	56071	44.53816	0
1	56127	44.58104	1
1	56131	44.5848	0
1	56187	44.62768	1
1	56191	44.63144	0
1	56247	44.67432	1
1	56251	44.67808	0
1	56307	44.72096	1
1	56311	44.72472	0
1	56367	44.7676	1
1	56371	44.77136	0
1	56427	44.81424	1
1	56431	44.818	0
1	56487	44.86088	1
1	56491	44.86464	0
1	56547	44.90752	1
1	56551	44.91128	0
1	56607	44.95416	1
1	56611	44.95792	0
1	56667	45.0008	1
1	56671	45.00456	0
1	56727	45.04744	1
1	56731	45.0512	0
1	56787	45.09408	1
1	56791	45.09784	0
1	56847	45.14072	1
1	56851	45.14448	0
1	56907	45.18736	1
1	56911	45.19112	0
1	56967	45.234	1
1	56971	45.23776	0
1	57027	45.28064	1
1	57031	45.2844	0
1	57087	45.32728	1
1	57091	45.33104	0
1	57147	45.37392	1
1	57151	45.37768	0
1	57207	45.42056	1
1	57211	45.42432	0
1	57267	45.4672	1
1	57271	45.47096	0
1	57327	45.51384	1
1	57331	45.5176	0
1	57387	45.56048	1
1	57391	45.56424	0
1	57447	45.60712	1
1	57451	45.61088	0
1	57507	45.65376	1
1	57511	45.65752	0
1	57567	45.7004	1
1	57571	45.70416	0
1	57627	45.74704	1
1	57631	45.7508	0
1	57687	45.79368	1
1	57691	45.79744	0
1	57747	45.84032	1
1	57751	45.84408	0
1	57807	45.88696	1
1	57811	45.89072	0
1	57867	45.9336	1
1	57871	45.93736	0
1	57927	45.98024	1
1	57931	45.984	0
1	57987	46.02688	1
1	57991	46.03064	0
1	58047	46.07352	1
1	58051	46.07728	0
1	58107	46.12016	1
1	58111	46.12392	0
1	58167	46.1668	1
1	58171	46.17056	0
1	58227	46.21344	1
1	58231	46.2172	0
1	58287	46.26008	1
1	58291	46.26384	0
1	58347	46.30672	1
1	58351	46.31048	0
1	58407	46.35336	1
1	58411	46.35712	0
1	58467	46.4	1
1	58471	46.40376	0
1	58527	46.44664	1
1	58531	46.4504	0
1	58587	46.49328	1
1	58591	46.49704	0
1	58647	46.53992	1
1	58651	46.54368	0
1	58707	46.58656	1
1	58711	46.59032	0
1	58767	46.6332	1
1	58771	46.63696	0
1	58827	46.67984	1
1	58831	46.6836	0
1	58887	46.72648	1
1	58891	46.73024	0
1	58947	46.77312	1
1	58951	46.77688	0
1	59007	46.81976	1
1	59011	46.82352	0
1	59067	46.8664	1
1	59071	46.87016	0
1	59127	46.91304	1
1	59131	46.9168	0
1	59187	46.95968	1
1	59191	46.96344	0
1	59247	47.00632	1
1	59251	47.01008	0
1	59307	47.05296	1
1	59311	47.05672	0
1	59367	47.0996	1
1	59371	47.10336	0
1	59427	47.14624	1
1	59431	47.15	0
1	59487	47.19288	1
1	59491	47.19664	0
1	59547	47.23952	1
1	59551	47.24328	0
1	59607	47.28616	1
1	59611	47.28992	0
1	59667	47.3328	1
1	59671	47.33656	0
1	59727	47.37944	1
1	59731	47.3832	0
1	59787	47.42608	1
1	59791	47.42984	0
1	59847	47.47272	1
1	59851	47.47648	0
1	59907	47.51936	1
1	59911	47.52312	0
1	59967	47.566	1
1	59971	47.56976	0
1	60027	47.61264	1
1	60031	47.6164	0
1	60087	47.65928	1
1	60091	47.66304	0
1	60147	47.70592	1
1	60151	47.70968	0
1	60207	47.75256	1
1	60211	47.75632	0
1	60267	47.7992	1
1	60271	47.80296	0
1	60327	47.84584	1
1	60331	47.8496	0
1	60387	47.89248	1
1	60391	47.89624	0
1	60447	47.93912	1
1	60451	47.94288	0
1	60507	47.98576	1
1	60511	47.98952	0
1	60567	48.0324	1
1	60571	48.03616	0
1	60627	48.07904	1
1	60631	48.0828	0
1	60687	48.12568	1
1	60691	48.12944	0
1	60747	48.17232	1
1	60751	48.17608	0
1	60807	48.21896	1
1	60811	48.22272	0
1	60867	48.2656	1
1	60871	48.26936	0
1	60927	48.31224	1
1	60931	48.316	0
1	60987	48.35888	1
1	60991	48.36264	0
1	61047	48.40552	1
1	61051	48.40928	0
1	61107	48.45216	1
1	61111	48.45592	0
1	61167	48.4988	1
1	61171	48.50256	0
1	61227	48.54544	1
1	61231	48.5492	0
1	61287	48.59208	1
1	61291	48.59584	0
1	61347	48.63872	1
1	61351	48.64248	0
1	61407	48.68536	1
1	61411	48.68912	0
1	61467	48.732	1
1	61471	48.73576	0
1	61527	48.77864	1
1	61531	48.7824	0
1	61587	48.82528	1
1	61591	48.82904	0
1	61647	48.87192	1
1	61651	48.87568	0
1	61707	48.91856	1
1	61711	48.92232	0
1	61767	48.9652	1
1	61771	48.96896	0
1	61827	49.01184	1
1	61831	49.0156	0
1	61887	49.05848	1
1	61891	49.06224	0
1	61947	49.10512	1
1	61951	49.10888	0
1	62007	49.15176	1
1	62011	49.15552	0
1	62067	49.1984	1
1	62071	49.20216	0
1	62127	49.24504	1
1	62131	49.2488	0
1	62187	49.29168	1
1	62191	49.29544	0
1	62247	49.33832	1
1	62251	49.34208	0
1	62307	49.38496	1
1	62311	49.38872	0
1	62367	49.4316	1
1	62371	49.43536	0
1	62427	49.47824	1
1	62431	49.482	0
1	62487	49.52488	1
1	62491	49.52864	0
1	62547	49.57152	1
1	62551	49.57528	0
1	62607	49.61816	1
1	62611	49.62192	0
1	62667	49.6648	1
1	62671	49.66856	0
1	62727	49.71144	1
1	62731	49.7152	0
1	62787	49.75808	1
1	62791	49.76184	0
1	62847	49.80472	1
1	62851	49.80848	0
1	62907	49.85136	1
1	62911	49.85512	0
1	62967	49.898	1
2	0	0	0
2	92	1.04816	1
2	96	1.05192	0
3	0	0	0
3	20	1	1
3	24	1.00408	0
3	85	1.04816	1
3	96	1.05192	0
3	100	1.05192	1
3	104	1.07168	0
3	220	1.16208	1
3	224	1.16584	0
3	292	1.25248	1
3	296	1.25624	0
3	360	1.29912	1
3	364	1.30288	0
3	428	1.34576	1
3	432	1.34952	0
3	496	1.3924	1
3	500	1.39616	0
3	564	1.43904	1
3	568	1.4428	0
3	632	1.48568	1
3	636	1.48944	0
3	700	1.53232	1
3	704	1.53608	0
3	768	1.57896	1
3	772	1.58272	0
3	836	1.6256	1
3	840	1.62936	0
3	904	1.67224	1
3	908	1.676	0
3	972	1.71888	1
3	976	1.72264	0
3	1040	1.76552	1
3	1044	1.76928	0
3	1108	1.81216	1
3	1112	1.81592	0
3	1168	1.8588	1
3	1172	1.86256	0
3	1228	1.90544	1
3	1232	1.9092	0
3	1288	1.95208	1
3	1292	1.95584	0
3	1348	1.99872	1
3	1352	2.00248	0
3	1408	2.04536	1
3	1412	2.04912	0
3	1468	2.092	1
3	1472	2.09576	0
3	1528	2.13864	1
3	1532	2.1424	0
3	1588	2.18528	1
3	1592	2.18904	0
3	1648	2.23192	1
3	1652	2.23568	0
3	1708	2.27856	1
3	1712	2.28232	0
3	1768	2.3252	1
3	1772	2.32896	0
3	1828	2.37184	1
3	1832	2.3756	0
3	1888	2.41848	1
3	1892	2.42224	0
3	1948	2.46512	1
3	1952	2.46888	0
3	2008	2.51176	1
3	2012	2.51552	0
3	2068	2.5584	1
3	2072	2.56216	0
3	2128	2.60504	1
3	2132	2.6088	0
3	2188	2.65168	1
3	2192	2.65544	0
3	2248	2.69832	1
3	2252	2.70208	0
3	2308	2.74496	1
3	2312	2.74872	0
3	2368	2.7916	1
3	2372	2.79536	0
3	2428	2.83824	1
3	2432	2.842	0
3	2488	2.88488	1
3	2492	2.88864	0
3	2548	2.93152	1
3	2552	2.93528	0
3	2608	2.97816	1
3	2612	2.98192	0
3	2668	3.0248	1
3	2672	3.02856	0
3	2728	3.07144	1
3	2732	3.0752	0
3	2788	3.11808	1
3	2792	3.12184	0
3	2848	3.16472	1
3	2852	3.16848	0
3	2908	3.21136	1
3	2912	3.21512	0
3	2968	3.258	1
3	2972	3.26176	0
3	3028	3.30464	1
3	3032	3.3084	0
3	3088	3.35128	1
3	3092	3.35504	0
3	3148	3.39792	1
3	3152	3.40168	0
3	3208	3.44456	1
3	3212	3.44832	0
3	3268	3.4912	1
3	3272	3.49496	0
3	3328	3.53784	1
3	3332	3.5416	0
3	3388	3.58448	1
3	3392	3.58824	0
3	3448	3.63112	1
3	3452	3.63488	0
3	3508	3.67776	1
3	3512	3.68152	0
3	3568	3.7244	1
3	3572	3.72816	0
3	3628	3.77104	1
3	3632	3.7748	0
3	3688	3.81768	1
3	3692	3.82144	0
3	3748	3.86432	1
3	3752	3.86808	0
3	3808	3.91096	1
3	3812	3.91472	0
3	3868	3.9576	1
3	3872	3.96136	0
3	3928	4.00424	1
3	3932	4.008	0
3	3988	4.05088	1
3	3992	4.05464	0
3	4048	4.09752	1
3	4052	4.10128	0
3	4108	4.14416	1
3	4112	4.14792	0
3	4168	4.1908	1
3	4172	4.19456	0
3	4228	4.23744	1
3	4232	4.2412	0
3	4288	4.28408	1
3	4292	4.28784	0
3	4348	4.33072	1
3	4352	4.33448	0
3	4408	4.37736	1
3	4412	4.38112	0
3	4468	4.424	1
3	4472	4.42776	0
3	4528	4.47064	1
3	4532	4.4744	0
3	4588	4.51728	1
3	4592	4.52104	0
3	4648	4.56392	1
3	4652	4.56768	0
3	4708	4.61056	1
3	4712	4.61432	0
3	4768	4.6572	1
3	4772	4.66096	0
3	4828	4.70384	1
3	4832	4.7076	0
3	4888	4.75048	1
3	4892	4.75424	0
3	4948	4.79712	1
3	4952	4.80088	0
3	5008	4.84376	1
3	5012	4.84752	0
3	5068	4.8904	1
3	5072	4.89416	0
3	5128	4.93704	1
3	5132	4.9408	0
3	5188	4.98368	1
3	5192	4.98744	0
3	5248	5.03032	1
3	5252	5.03408	0
3	5308	5.07696	1
3	5312	5.08072	0
3	5368	5.1236	1
3	5372	5.12736	0
3	5428	5.17024	1
3	5432	5.174	0
3	5488	5.21688	1
3	5492	5.22064	0
3	5548	5.26352	1
3	5552	5.26728	0
3	5608	5.31016	1
3	5612	5.31392	0
3	5668	5.3568	1
3	5672	5.36056	0
3	5728	5.40344	1
3	5732	5.4072	0
3	5788	5.45008	1
3	5792	5.45384	0
3	5848	5.49672	1
3	5852	5.50048	0
3	5908	5.54336	1
3	5912	5.54712	0
3	5968	5.59	1
3	5972	5.59376	0
3	6028	5.63664	1
3	6032	5.6404	0
3	6088	5.68328	1
3	6092	5.68704	0
3	6148	5.72992	1
3	6152	5.73368	0
3	6208	5.77656	1
3	6212	5.78032	0
3	6268	5.8232	1
3	6272	5.82696	0
3	6328	5.86984	1
3	6332	5.8736	0
3	6388	5.91648	1
3	6392	5.92024	0
3	6448	5.96312	1
3	6452	5.96688	0
3	6508	6.00976	1
3	6512	6.01352	0
3	6568	6.0564	1
3	6572	6.06016	0
3	6628	6.10304	1
3	6632	6.1068	0
3	6688	6.14968	1
3	6692	6.15344	0
3	6748	6.19632	1
3	6752	6.20008	0
3	6808	6.24296	1
3	6812	6.24672	0
3	6868	6.2896	1
3	6872	6.29336	0
3	6928	6.33624	1
3	6932	6.34	0
3	6988	6.38288	1
3	6992	6.38664	0
3	7048	6.42952	1
3	7052	6.43328	0
3	7108	6.47616	1
3	7112	6.47992	0
3	7168	6.5228	1
3	7172	6.52656	0
3	7228	6.56944	1
3	7232	6.5732	0
3	7288	6.61608	1
3	7292	6.61984	0
3	7348	6.66272	1
3	7352	6.66648	0
3	7408	6.70936	1
3	7412	6.71312	0
3	7468	6.756	1
3	7472	6.75976	0
3	7528	6.80264	1
3	7532	6.8064	0
3	7588	6.84928	1
3	7592	6.85304	0
3	7648	6.89592	1
3	7652	6.89968	0
3	7708	6.94256	1
3	7712	6.94632	0
3	7768	6.9892	1
3	7772	6.99296	0
3	7828	7.03584	1
3	7832	7.0396	0
3	7888	7.08248	1
3	7892	7.08624	0
3	7948	7.12912	1
3	7952	7.13288	0
3	8008	7.17576	1
3	8012	7.17952	0
3	8068	7.2224	1
3	8072	7.22616	0
3	8128	7.26904	1
3	8132	7.2728	0
3	8188	7.31568	1
3	8192	7.31944	0
3	8248	7.36232	1
3	8252	7.36608	0
3	8308	7.40896	1
3	8312	7.41272	0
3	8368	7.4556	1
3	8372	7.45936	0
3	8428	7.50224	1
3	8432	7.506	0
3	8488	7.54888	1
3	8492	7.55264	0
3	8548	7.59552	1
3	8552	7.59928	0
3	8608	7.64216	1
3	8612	7.64592	0
3	8668	7.6888	1
3	8672	7.69256	0
3	8728	7.73544	1
3	8732	7.7392	0
3	8788	7.78208	1
3	8792	7.78584	0
3	8848	7.82872	1
3	8852	7.83248	0
3	8908	7.87536	1
3	8912	7.87912	0
3	8968	7.922	1
3	8972	7.92576	0
3	9028	7.96864	1
3	9032	7.9724	0
3	9088	8.01528	1
3	9092	8.01904	0
3	9148	8.06192	1
3	9152	8.06568	0
3	9208	8.10856	1
3	9212	8.11232	0
3	9268	8.1552	1
3	9272	8.15896	0
3	9328	8.20184	1
3	9332	8.2056	0
3	9388	8.24848	1
3	9392	8.25224	0
3	9448	8.29512	1
3	9452	8.29888	0
3	9508	8.34176	1
3	9512	8.34552	0
3	9568	8.3884	1
3	9572	8.39216	0
3	9628	8.43504	1
3	9632	8.4388	0
3	9688	8.48168	1
3	9692	8.48544	0
3	9748	8.52832	1
3	9752	8.53208	0
3	9808	8.57496	1
3	9812	8.57872	0
3	9868	8.6216	1
3	9872	8.62536	0
3	9928	8.66824	1
3	9932	8.672	0
3	9988	8.71488	1
3	9992	8.71864	0
3	10048	8.76152	1
3	10052	8.76528	0
3	10108	8.80816	1
3	10112	8.81192	0
3	10168	8.8548	1
3	10172	8.85856	0
3	10228	8.90144	1
3	10232	8.9052	0
3	10288	8.94808	1
3	10292	8.95184	0
3	10348	8.99472	1
3	10352	8.99848	0
3	10408	9.04136	1
3	10412	9.04512	0
3	10468	9.088	1
3	10472	9.09176	0
3	10528	9.13464	1
3	10532	9.1384	0
3	10588	9.18128	1
3	10592	9.18504	0
3	10648	9.22792	1
3	10652	9.23168	0
3	10708	9.27456	1
3	10712	9.27832	0
3	10768	9.3212	1
3	10772	9.32496	0
3	10828	9.36784	1
3	10832	9.3716	0
3	10888	9.41448	1
3	10892	9.41824	0
3	10948	9.46112	1
3	10952	9.46488	0
3	11008	9.50776	1
3	11012	9.51152	0
3	11068	9.5544	1
3	11072	9.55816	0
3	11128	9.60104	1
3	11132	9.6048	0
3	11188	9.64768	1
3	11192	9.65144	0
3	11248	9.69432	1
3	11252	9.69808	0
3	11308	9.74096	1
3	11312	9.74472	0
3	11368	9.7876	1
3	11372	9.79136	0
3	11428	9.83424	1
3	11432	9.838	0
3	11488	9.88088	1
3	11492	9.88464	0
3	11548	9.92752	1
3	11552	9.93128	0
3	11608	9.97416	1
3	11612	9.97792	0
3	11668	10.0208	1
3	11672	10.02456	0
3	11728	10.06744	1
3	11732	10.0712	0
3	11788	10.11408	1
3	11792	10.11784	0
3	11848	10.16072	1
3	11852	10.16448	0
3	11908	10.20736	1
3	11912	10.21112	0
3	11968	10.254	1
3	11972	10.25776	0
3	12028	10.30064	1
3	12032	10.3044	0
3	12088	10.34728	1
3	12092	10.35104	0
3	12148	10.39392	1
3	12152	10.39768	0
3	12208	10.44056	1
3	12212	10.44432	0
3	12268	10.4872	1
3	12272	10.49096	0
3	12328	10.53384	1
3	12332	10.5376	0
3	12388	10.58048	1
3	12392	10.58424	0
3	12448	10.62712	1
3	12452	10.63088	0
3	12508	10.67376	1
3	12512	10.67752	0
3	12568	10.7204	1
3	12572	10.72416	0
3	12628	10.76704	1
3	12632	10.7708	0
3	12688	10.81368	1
3	12692	10.81744	0
3	12748	10.86032	1
3	12752	10.86408	0
3	12808	10.90696	1
3	12812	10.91072	0
3	12868	10.9536	1
3	12872	10.95736	0
3	12928	11.00024	1
3	12932	11.004	0
3	12988	11.04688	1
3	12992	11.05064	0
3	13048	11.09352	1
3	13052	11.09728	0
3	13108	11.14016	1
3	13112	11.14392	0
3	13168	11.1868	1
3	13172	11.19056	0
3	13228	11.23344	1
3	13232	11.2372	0
3	13288	11.28008	1
3	13292	11.28384	0
3	13348	11.32672	1
3	13352	11.33048	0
3	13408	11.37336	1
3	13412	11.37712	0
3	13468	11.42	1
3	13472	11.42376	0
3	13528	11.46664	1
3	13532	11.4704	0
3	13588	11.51328	1
3	13592	11.51704	0
3	13648	11.55992	1
3	13652	11.56368	0
3	13708	11.60656	1
3	13712	11.61032	0
3	13768	11.6532	1
3	13772	11.65696	0
3	13828	11.69984	1
3	13832	11.7036	0
3	13888	11.74648	1
3	13892	11.75024	0
3	13948	11.79312	1
3	13952	11.79688	0
3	14008	11.83976	1
3	14012	11.84352	0
3	14068	11.8864	1
3	14072	11.89016	0
3	14128	11.93304	1
3	14132	11.9368	0
3	14188	11.97968	1
3	14192	11.98344	0
3	14248	12.02632	1
3	14252	12.03008	0
3	14308	12.07296	1
3	14312	12.07672	0
3	14368	12.1196	1
3	14372	12.12336	0
3	14428	12.16624	1
3	14432	12.17	0
3	14488	12.21288	1
3	14492	12.21664	0
3	14548	12.25952	1
3	14552	12.26328	0
3	14608	12.30616	1
3	14612	12.30992	0
3	14668	12.3528	1
3	14672	12.35656	0
3	14728	12.39944	1
3	14732	12.4032	0
3	14788	12.44608	1
3	14792	12.44984	0
3	14848	12.49272	1
3	14852	12.49648	0
3	14908	12.53936	1
3	14912	12.54312	0
3	14968	12.586	1
3	14972	12.58976	0
3	15028	12.63264	1
3	15032	12.6364	0
3	15088	12.67928	1
3	15092	12.68304	0
3	15148	12.72592	1
3	15152	12.72968	0
3	15208	12.77256	1
3	15212	12.77632	0
3	15268	12.8192	1
3	15272	12.82296	0
3	15328	12.86584	1
3	15332	12.8696	0
3	15388	12.91248	1
3	15392	12.91624	0
3	15448	12.95912	1
3	15452	12.96288	0
3	15508	13.00576	1
3	15512	13.00952	0
3	15568	13.0524	1
3	15572	13.05616	0
3	15628	13.09904	1
3	15632	13.1028	0
3	15688	13.14568	1
3	15692	13.14944	0
3	15748	13.19232	1
3	15752	13.19608	0
3	15808	13.23896	1
3	15812	13.24272	0
3	15868	13.2856	1
3	15872	13.28936	0
3	15928	13.33224	1
3	15932	13.336	0
3	15988	13.37888	1
3	15992	13.38264	0
3	16048	13.42552	1
3	16052	13.42928	0
3	16108	13.47216	1
3	16112	13.47592	0
3	16168	13.5188	1
3	16172	13.52256	0
3	16228	13.56544	1
3	16232	13.5692	0
3	16288	13.61208	1
3	16292	13.61584	0
3	16348	13.65872	1
3	16352	13.66248	0
3	16408	13.70536	1
3	16412	13.70912	0
3	16468	13.752	1
3	16472	13.75576	0
3	16528	13.79864	1
3	16532	13.8024	0
3	16588	13.84528	1
3	16592	13.84904	0
3	16648	13.89192	1
3	16652	13.89568	0
3	16708	13.93856	1
3	16712	13.94232	0
3	16768	13.9852	1
3	16772	13.98896	0
3	16828	14.03184	1
3	16832	14.0356	0
3	16888	14.07848	1
3	16892	14.08224	0
3	16948	14.12512	1
3	16952	14.12888	0
3	17008	14.17176	1
3	17012	14.17552	0
3	17068	14.2184	1
3	17072	14.22216	0
3	17128	14.26504	1
3	17132	14.2688	0
3	17188	14.31168	1
3	17192	14.31544	0
3	17248	14.35832	1
3	17252	14.36208	0
3	17308	14.40496	1
3	17312	14.40872	0
3	17368	14.4516	1
3	17372	14.45536	0
3	17428	14.49824	1
3	17432	14.502	0
3	17488	14.54488	1
3	17492	14.54864	0
3	17548	14.59152	1
3	17552	14.59528	0
3	17608	14.63816	1
3	17612	14.64192	0
3	17668	14.6848	1
3	17672	14.68856	0
3	17728	14.73144	1
3	17732	14.7352	0
3	17788	14.77808	1
3	17792	14.78184	0
3	17848	14.82472	1
3	17852	14.82848	0
3	17908	14.87136	1
3	17912	14.87512	0
3	17968	14.918	1
3	17972	14.92176	0
3	18028	14.96464	1
3	18032	14.9684	0
3	18088	15.01128	1
3	18092	15.01504	0
3	18148	15.05792	1
3	18152	15.06168	0
3	18208	15.10456	1
3	18212	15.10832	0
3	18268	15.1512	1
3	18272	15.15496	0
3	18328	15.19784	1
3	18332	15.2016	0
3	18388	15.24448	1
3	18392	15.24824	0
3	18448	15.29112	1
3	18452	15.29488	0
3	18508	15.33776	1
3	18512	15.34152	0
3	18568	15.3844	1
3	18572	15.38816	0
3	18628	15.43104	1
3	18632	15.4348	0
3	18688	15.47768	1
3	18692	15.48144	0
3	18748	15.52432	1
3	18752	15.52808	0
3	18808	15.57096	1
3	18812	15.57472	0
3	18868	15.6176	1
3	18872	15.62136	0
3	18928	15.66424	1
3	18932	15.668	0
3	18988	15.71088	1
3	18992	15.71464	0
3	19048	15.75752	1
3	19052	15.76128	0
3	19108	15.80416	1
3	19112	15.80792	0
3	19168	15.8508	1
3	19172	15.85456	0
3	19228	15.89744	1
3	19232	15.9012	0
3	19288	15.94408	1
3	19292	15.94784	0
3	19348	15.99072	1
3	19352	15.99448	0
3	19408	16.03736	1
3	19412	16.04112	0
3	19468	16.084	1
3	19472	16.08776	0
3	19528	16.13064	1
3	19532	16.1344	0
3	19588	16.17728	1
3	19592	16.18104	0
3	19648	16.22392	1
3	19652	16.22768	0
3	19708	16.27056	1
3	19712	16.27432	0
3	19768	16.3172	1
3	19772	16.32096	0
3	19828	16.36384	1
3	19832	16.3676	0
3	19888	16.41048	1
3	19892	16.41424	0
3	19948	16.45712	1
3	19952	16.46088	0
3	20008	16.50376	1
3	20012	16.50752	0
3	20068	16.5504	1
3	20072	16.55416	0
3	20128	16.59704	1
3	20132	16.6008	0
3	20188	16.64368	1
3	20192	16.64744	0
3	20248	16.69032	1
3	20252	16.69408	0
3	20308	16.73696	1
3	20312	16.74072	0
3	20368	16.7836	1
3	20372	16.78736	0
3	20428	16.83024	1
3	20432	16.834	0
3	20488	16.87688	1
3	20492	16.88064	0
3	20548	16.92352	1
3	20552	16.92728	0
3	20608	16.97016	1
3	20612	16.97392	0
3	20668	17.0168	1
3	20672	17.02056	0
3	20728	17.06344	1
3	20732	17.0672	0
3	20788	17.11008	1
3	20792	17.11384	0
3	20848	17.15672	1
3	20852	17.16048	0
3	20908	17.20336	1
3	20912	17.20712	0
3	20968	17.25	1
3	20972	17.25376	0
3	21028	17.29664	1
3	21032	17.3004	0
3	21088	17.34328	1
3	21092	17.34704	0
3	21148	17.38992	1
3	21152	17.39368	0
3	21208	17.43656	1
3	21212	17.44032	0
3	21268	17.4832	1
3	21272	17.48696	0
3	21328	17.52984	1
3	21332	17.5336	0
3	21388	17.57648	1
3	21392	17.58024	0
3	21448	17.62312	1
3	21452	17.62688	0
3	21508	17.66976	1
3	21512	17.67352	0
3	21568	17.7164	1
3	21572	17.72016	0
3	21628	17.76304	1
3	21632	17.7668	0
3	21688	17.80968	1
3	21692	17.81344	0
3	21748	17.85632	1
3	21752	17.86008	0
3	21808	17.90296	1
3	21812	17.90672	0
3	21868	17.9496	1
3	21872	17.95336	0
3	21928	17.99624	1
3	21932	18	0
3	21988	18.04288	1
3	21992	18.04664	0
3	22048	18.08952	1
3	22052	18.09328	0
3	22108	18.13616	1
3	22112	18.13992	0
3	22168	18.1828	1
3	22172	18.18656	0
3	22228	18.22944	1
3	22232	18.2332	0
3	22288	18.27608	1
3	22292	18.27984	0
3	22348	18.32272	1
3	22352	18.32648	0
3	22408	18.36936	1
3	22412	18.37312	0
3	22468	18.416	1
3	22472	18.41976	0
3	22528	18.46264	1
3	22532	18.4664	0
3	22588	18.50928	1
3	22592	18.51304	0
3	22648	18.55592	1
3	22652	18.55968	0
3	22708	18.60256	1
3	22712	18.60632	0
3	22768	18.6492	1
3	22772	18.65296	0
3	22828	18.69584	1
3	22832	18.6996	0
3	22888	18.74248	1
3	22892	18.74624	0
3	22948	18.78912	1
3	22952	18.79288	0
3	23008	18.83576	1
3	23012	18.83952	0
3	23068	18.8824	1
3	23072	18.88616	0
3	23128	18.92904	1
3	23132	18.9328	0
3	23188	18.97568	1
3	23192	18.97944	0
3	23248	19.02232	1
3	23252	19.02608	0
3	23308	19.06896	1
3	23312	19.07272	0
3	23368	19.1156	1
3	23372	19.11936	0
3	23428	19.16224	1
3	23432	19.166	0
3	23488	19.20888	1
3	23492	19.21264	0
3	23548	19.25552	1
3	23552	19.25928	0
3	23608	19.30216	1
3	23612	19.30592	0
3	23668	19.3488	1
3	23672	19.35256	0
3	23728	19.39544	1
3	23732	19.3992	0
3	23788	19.44208	1
3	23792	19.44584	0
3	23848	19.48872	1
3	23852	19.49248	0
3	23908	19.53536	1
3	23912	19.53912	0
3	23968	19.582	1
3	23972	19.58576	0
3	24028	19.62864	1
3	24032	19.6324	0
3	24088	19.67528	1
3	24092	19.67904	0
3	24148	19.72192	1
3	24152	19.72568	0
3	24208	19.76856	1
3	24212	19.77232	0
3	24268	19.8152	1
3	24272	19.81896	0
3	24328	19.86184	1
3	24332	19.8656	0
3	24388	19.90848	1
3	24392	19.91224	0
3	24448	19.95512	1
3	24452	19.95888	0
3	24508	20.00176	1
3	24512	20.00552	0
3	24568	20.0484	1
3	24572	20.05216	0
3	24628	20.09504	1
3	24632	20.0988	0
3	24688	20.14168	1
3	24692	20.14544	0
3	24748	20.18832	1
3	24752	20.19208	0
3	24808	20.23496	1
3	24812	20.23872	0
3	24868	20.2816	1
3	24872	20.28536	0
3	24928	20.32824	1
3	24932	20.332	0
3	24988	20.37488	1
3	24992	20.37864	0
3	25048	20.42152	1
3	25052	20.42528	0
3	25108	20.46816	1
3	25112	20.47192	0
3	25168	20.5148	1
3	25172	20.51856	0
3	25228	20.56144	1
3	25232	20.5652	0
3	25288	20.60808	1
3	25292	20.61184	0
3	25348	20.65472	1
3	25352	20.65848	0
3	25408	20.70136	1
3	25412	20.70512	0
3	25468	20.748	1
3	25472	20.75176	0
3	25528	20.79464	1
3	25532	20.7984	0
3	25588	20.84128	1
3	25592	20.84504	0
3	25648	20.88792	1
3	25652	20.89168	0
3	25708	20.93456	1
3	25712	20.93832	0
3	25768	20.9812	1
3	25772	20.98496	0
3	25828	21.02784	1
3	25832	21.0316	0
3	25888	21.07448	1
3	25892	21.07824	0
3	25948	21.12112	1
3	25952	21.12488	0
3	26008	21.16776	1
3	26012	21.17152	0
3	26068	21.2144	1
3	26072	21.21816	0
3	26128	21.26104	1
3	26132	21.2648	0
3	26188	21.30768	1
3	26192	21.31144	0
3	26248	21.35432	1
3	26252	21.35808	0
3	26308	21.40096	1
3	26312	21.40472	0
3	26368	21.4476	1
3	26372	21.45136	0
3	26428	21.49424	1
3	26432	21.498	0
3	26488	21.54088	1
3	26492	21.54464	0
3	26548	21.58752	1
3	26552	21.59128	0
3	26608	21.63416	1
3	26612	21.63792	0
3	26668	21.6808	1
3	26672	21.68456	0
3	26728	21.72744	1
3	26732	21.7312	0
3	26788	21.77408	1
3	26792	21.77784	0
3	26848	21.82072	1
3	26852	21.82448	0
3	26908	21.86736	1
3	26912	21.87112	0
3	26968	21.914	1
3	26972	21.91776	0
3	27028	21.96064	1
3	27032	21.9644	0
3	27088	22.00728	1
3	27092	22.01104	0
3	27148	22.05392	1
3	27152	22.05768	0
3	27208	22.10056	1
3	27212	22.10432	0
3	27268	22.1472	1
3	27272	22.15096	0
3	27328	22.19384	1
3	27332	22.1976	0
3	27388	22.24048	1
3	27392	22.24424	0
3	27448	22.28712	1
3	27452	22.29088	0
3	27508	22.33376	1
3	27512	22.33752	0
3	27568	22.3804	1
3	27572	22.38416	0
3	27628	22.42704	1
3	27632	22.4308	0
3	27688	22.47368	1
3	27692	22.47744	0
3	27748	22.52032	1
3	27752	22.52408	0
3	27808	22.56696	1
3	27812	22.57072	0
3	27868	22.6136	1
3	27872	22.61736	0
3	27928	22.66024	1
3	27932	22.664	0
3	27988	22.70688	1
3	27992	22.71064	0
3	28048	22.75352	1
3	28052	22.75728	0
3	28108	22.80016	1
3	28112	22.80392	0
3	28168	22.8468	1
3	28172	22.85056	0
3	28228	22.89344	1
3	28232	22.8972	0
3	28288	22.94008	1
3	28292	22.94384	0
3	28348	22.98672	1
3	28352	22.99048	0
3	28408	23.03336	1
3	28412	23.03712	0
3	28468	23.08	1
3	28472	23.08376	0
3	28528	23.12664	1
3	28532	23.1304	0
3	28588	23.17328	1
3	28592	23.17704	0
3	28648	23.21992	1
3	28652	23.22368	0
3	28708	23.26656	1
3	28712	23.27032	0
3	28768	23.3132	1
3	28772	23.31696	0
3	28828	23.35984	1
3	28832	23.3636	0
3	28888	23.40648	1
3	28892	23.41024	0
3	28948	23.45312	1
3	28952	23.45688	0
3	29008	23.49976	1
3	29012	23.50352	0
3	29068	23.5464	1
3	29072	23.55016	0
3	29128	23.59304	1
3	29132	23.5968	0
3	29188	23.63968	1
3	29192	23.64344	0
3	29248	23.68632	1
3	29252	23.69008	0
3	29308	23.73296	1
3	29312	23.73672	0
3	29368	23.7796	1
3	29372	23.78336	0
3	29428	23.82624	1
3	29432	23.83	0
3	29488	23.87288	1
3	29492	23.87664	0
3	29548	23.91952	1
3	29552	23.92328	0
3	29608	23.96616	1
3	29612	23.96992	0
3	29668	24.0128	1
3	29672	24.01656	0
3	29728	24.05944	1
3	29732	24.0632	0
3	29788	24.10608	1
3	29792	24.10984	0
3	29848	24.15272	1
3	29852	24.15648	0
3	29908	24.19936	1
3	29912	24.20312	0
3	29968	24.246	1
3	29972	24.24976	0
3	30028	24.29264	1
3	30032	24.2964	0
3	30088	24.33928	1
3	30092	24.34304	0
3	30148	24.38592	1
3	30152	24.38968	0
3	30208	24.43256	1
3	30212	24.43632	0
3	30268	24.4792	1
3	30272	24.48296	0
3	30328	24.52584	1
3	30332	24.5296	0
3	30388	24.57248	1
3	30392	24.57624	0
3	30448	24.61912	1
3	30452	24.62288	0
3	30508	24.66576	1
3	30512	24.66952	0
3	30568	24.7124	1
3	30572	24.71616	0
3	30628	24.75904	1
3	30632	24.7628	0
3	30688	24.80568	1
3	30692	24.80944	0
3	30748	24.85232	1
3	30752	24.85608	0
3	30808	24.89896	1
3	30812	24.90272	0
3	30868	24.9456	1
3	30872	24.94936	0
3	30928	24.99224	1
3	30932	24.996	0
3	30988	25.03888	1
3	30992	25.04264	0
3	31048	25.08552	1
3	31052	25.08928	0
3	31108	25.13216	1
3	31112	25.13592	0
3	31168	25.1788	1
3	31172	25.18256	0
3	31228	25.22544	1
3	31232	25.2292	0
3	31288	25.27208	1
3	31292	25.27584	0
3	31348	25.31872	1
3	31352	25.32248	0
3	31408	25.36536	1
3	31412	25.36912	0
3	31468	25.412	1
3	31472	25.41576	0
3	31528	25.45864	1
3	31532	25.4624	0
3	31588	25.50528	1
3	31592	25.50904	0
3	31648	25.55192	1
3	31652	25.55568	0
3	31708	25.59856	1
3	31712	25.60232	0
3	31768	25.6452	1
3	31772	25.64896	0
3	31828	25.69184	1
3	31832	25.6956	0
3	31888	25.73848	1
3	31892	25.74224	0
3	31948	25.78512	1
3	31952	25.78888	0
3	32008	25.83176	1
3	32012	25.83552	0
3	32068	25.8784	1
3	32072	25.88216	0
3	32128	25.92504	1
3	32132	25.9288	0
3	32188	25.97168	1
3	32192	25.97544	0
3	32248	26.01832	1
3	32252	26.02208	0
3	32308	26.06496	1
3	32312	26.06872	0
3	32368	26.1116	1
3	32372	26.11536	0
3	32428	26.15824	1
3	32432	26.162	0
3	32488	26.20488	1
3	32492	26.20864	0
3	32548	26.25152	1
3	32552	26.25528	0
3	32608	26.29816	1
3	32612	26.30192	0
3	32668	26.3448	1
3	32672	26.34856	0
3	32728	26.39144	1
3	32732	26.3952	0
3	32788	26.43808	1
3	32792	26.44184	0
3	32848	26.48472	1
3	32852	26.48848	0
3	32908	26.53136	1
3	32912	26.53512	0
3	32968	26.578	1
3	32972	26.58176	0
3	33028	26.62464	1
3	33032	26.6284	0
3	33088	26.67128	1
3	33092	26.67504	0
3	33148	26.71792	1
3	33152	26.72168	0
3	33208	26.76456	1
3	33212	26.76832	0
3	33268	26.8112	1
3	33272	26.81496	0
3	33328	26.85784	1
3	33332	26.8616	0
3	33388	26.90448	1
3	33392	26.90824	0
3	33448	26.95112	1
3	33452	26.95488	0
3	33508	26.99776	1
3	33512	27.00152	0
3	33568	27.0444	1
3	33572	27.04816	0
3	33628	27.09104	1
3	33632	27.0948	0
3	33688	27.13768	1
3	33692	27.14144	0
3	33748	27.18432	1
3	33752	27.18808	0
3	33808	27.23096	1
3	33812	27.23472	0
3	33868	27.2776	1
3	33872	27.28136	0
3	33928	27.32424	1
3	33932	27.328	0
3	33988	27.37088	1
3	33992	27.37464	0
3	34048	27.41752	1
3	34052	27.42128	0
3	34108	27.46416	1
3	34112	27.46792	0
3	34168	27.5108	1
3	34172	27.51456	0
3	34228	27.55744	1
3	34232	27.5612	0
3	34288	27.60408	1
3	34292	27.60784	0
3	34348	27.65072	1
3	34352	27.65448	0
3	34408	27.69736	1
3	34412	27.70112	0
3	34468	27.744	1
3	34472	27.74776	0
3	34528	27.79064	1
3	34532	27.7944	0
[...]
4	63345	50.20448	8
4	63393	50.25112	7
4	63441	50.29776	6
4	63489	50.3444	5
4	63537	50.39104	4
4	63585	50.43768	3
4	63633	50.48432	2
4	63681	50.53096	1
4	63729	50.5776	0
5	63201	50.06456	0
5	63205	50.06456	1
5	63249	50.1112	0
5	63253	50.1112	1
5	63297	50.15784	0
5	63301	50.15784	1
5	63345	50.20448	0
5	63349	50.20448	1
5	63393	50.25112	0
5	63397	50.25112	1
5	63441	50.29776	0
5	63445	50.29776	1
5	63489	50.3444	0
5	63493	50.3444	1
5	63537	50.39104	0
5	63541	50.39104	1
5	63585	50.43768	0
5	63589	50.43768	1
5	63633	50.48432	0
5	63637	50.48432	1
5	63681	50.53096	0
5	63685	50.53096	1
5	63729	50.5776	0
5	63733	50.5776	1
5	63777	50.62424	0
6	63202	50.06456	11
6	63250	50.1112	10
6	63298	50.15784	9
6	63346	50.20448	8
6	63394	50.25112	7
6	63442	50.29776	6
6	63490	50.3444	5
6	63538	50.39104	4
6	63586	50.43768	3
6	63634	50.48432	2
6	63682	50.53096	1
6	63730	50.5776	0
7	63202	50.06456	0
7	63206	50.06456	1
7	63250	50.1112	0
7	63254	50.1112	1
7	63298	50.15784	0
7	63302	50.15784	1
7	63346	50.20448	0
7	63350	50.20448	1
7	63394	50.25112	0
7	63398	50.25112	1
7	63442	50.29776	0
7	63446	50.29776	1
7	63490	50.3444	0
7	63494	50.3444	1
7	63538	50.39104	0
7	63542	50.39104	1
7	63586	50.43768	0
7	63590	50.43768	1
7	63634	50.48432	0
7	63638	50.48432	1
7	63682	50.53096	0
7	63686	50.53096	1
7	63730	50.5776	0
7	63734	50.5776	1
7	63778	50.62424	0
9	63175	50.03792	1
9	63179	50.04168	0
9	63231	50.08456	1
9	63235	50.08832	0
9	63279	50.1312	1
9	63283	50.13496	0
9	63327	50.17784	1
9	63331	50.1816	0
9	63375	50.22448	1
9	63379	50.22824	0
9	63423	50.27112	1
9	63427	50.27488	0
9	63471	50.31776	1
9	63475	50.32152	0
9	63519	50.3644	1
9	63523	50.36816	0
9	63567	50.41104	1
9	63571	50.4148	0
9	63615	50.45768	1
9	63619	50.46144	0
9	63663	50.50432	1
9	63667	50.50808	0
9	63711	50.55096	1
9	63715	50.55472	0
9	63759	50.5976	1
9	63763	50.60136	0
9	63803	50.64424	1
9	63807	50.648	0
11	63176	50.03792	1
11	63180	50.04168	0
11	63232	50.08456	1
11	63236	50.08832	0
11	63280	50.1312	1
11	63284	50.13496	0
11	63328	50.17784	1
11	63332	50.1816	0
11	63376	50.22448	1
11	63380	50.22824	0
11	63424	50.27112	1
11	63428	50.27488	0
11	63472	50.31776	1
11	63476	50.32152	0
11	63520	50.3644	1
11	63524	50.36816	0
11	63568	50.41104	1
11	63572	50.4148	0
11	63616	50.45768	1
11	63620	50.46144	0
11	63664	50.50432	1
11	63668	50.50808	0
11	63712	50.55096	1
11	63716	50.55472	0
11	63760	50.5976	1
11	63764	50.60136	0
11	63804	50.64424	1
11	63808	50.648	0
12	63203	50.06456	11
12	63251	50.1112	10
12	63299	50.15784	9
12	63347	50.20448	8
12	63395	50.25112	7
12	63443	50.29776	6
12	63491	50.3444	5
12	63539	50.39104	4
12	63587	50.43768	3
12	63635	50.48432	2
12	63683	50.53096	1
12	63731	50.5776	0
13	63203	50.06456	0
13	63207	50.06456	1
13	63251	50.1112	0
13	63255	50.1112	1
13	63299	50.15784	0
13	63303	50.15784	1
13	63347	50.20448	0
13	63351	50.20448	1
13	63395	50.25112	0
13	63399	50.25112	1
13	63443	50.29776	0
13	63447	50.29776	1
13	63491	50.3444	0
13	63495	50.3444	1
13	63539	50.39104	0
13	63543	50.39104	1
13	63587	50.43768	0
13	63591	50.43768	1
13	63635	50.48432	0
13	63639	50.48432	1
13	63683	50.53096	0
13	63687	50.53096	1
13	63731	50.5776	0
13	63735	50.5776	1
13	63779	50.62424	0
14	63204	50.06456	11
14	63252	50.1112	10
14	63300	50.15784	9
14	63348	50.20448	8
14	63396	50.25112	7
14	63444	50.29776	6
14	63492	50.3444	5
14	63540	50.39104	4
14	63588	50.43768	3
14	63636	50.48432	2
14	63684	50.53096	1
14	63732	50.5776	0
15	63204	50.06456	0
15	63208	50.06456	1
15	63252	50.1112	0
15	63256	50.1112	1
15	63300	50.15784	0
15	63304	50.15784	1
15	63348	50.20448	0
15	63352	50.20448	1
15	63396	50.25112	0
15	63400	50.25112	1
15	63444	50.29776	0
15	63448	50.29776	1
15	63492	50.3444	0
15	63496	50.3444	1
15	63540	50.39104	0
15	63544	50.39104	1
15	63588	50.43768	0
15	63592	50.43768	1
15	63636	50.48432	0
15	63640	50.48432	1
15	63684	50.53096	0
15	63688	50.53096	1
15	63732	50.5776	0
15	63736	50.5776	1
15	63780	50.62424	0
32	63169	50.03792	40
32	63225	50.08456	40
32	63273	50.1312	40
32	63321	50.17784	40
32	63369	50.22448	40
32	63417	50.27112	40
32	63465	50.31776	40
32	63513	50.3644	40
32	63561	50.41104	40
32	63609	50.45768	40
32	63657	50.50432	40
32	63705	50.55096	40
32	63753	50.5976	40
32	63797	50.64424	40
33	63169	50.03792	0
33	63225	50.08456	0
33	63273	50.1312	0
33	63321	50.17784	0
33	63369	50.22448	0
33	63417	50.27112	0
33	63465	50.31776	0
33	63513	50.3644	0
33	63561	50.41104	0
33	63609	50.45768	0
33	63657	50.50432	0
33	63705	50.55096	0
33	63753	50.5976	0
33	63797	50.64424	0
34	63170	50.03792	40
34	63226	50.08456	40
34	63274	50.1312	40
34	63322	50.17784	40
34	63370	50.22448	40
34	63418	50.27112	40
34	63466	50.31776	40
34	63514	50.3644	40
34	63562	50.41104	40
34	63610	50.45768	40
34	63658	50.50432	40
34	63706	50.55096	40
34	63754	50.5976	40
34	63798	50.64424	40
35	63170	50.03792	0
35	63226	50.08456	0
35	63274	50.1312	0
35	63322	50.17784	0
35	63370	50.22448	0
35	63418	50.27112	0
35	63466	50.31776	0
35	63514	50.3644	0
35	63562	50.41104	0
35	63610	50.45768	0
35	63658	50.50432	0
35	63706	50.55096	0
35	63754	50.5976	0
35	63798	50.64424	0
36	63171	50.03792	40
36	63227	50.08456	40
36	63275	50.1312	40
36	63323	50.17784	40
36	63371	50.22448	40
36	63419	50.27112	40
36	63467	50.31776	40
36	63515	50.3644	40
36	63563	50.41104	40
36	63611	50.45768	40
36	63659	50.50432	40
36	63707	50.55096	40
36	63755	50.5976	40
36	63799	50.64424	40
37	63171	50.03792	0
37	63227	50.08456	0
37	63275	50.1312	0
37	63323	50.17784	0
37	63371	50.22448	0
37	63419	50.27112	0
37	63467	50.31776	0
37	63515	50.3644	0
37	63563	50.41104	0
37	63611	50.45768	0
37	63659	50.50432	0
37	63707	50.55096	0
37	63755	50.5976	0
37	63799	50.64424	0
38	63172	50.03792	40
38	63228	50.08456	40
38	63276	50.1312	40
38	63324	50.17784	40
38	63372	50.22448	40
38	63420	50.27112	40
38	63468	50.31776	40
38	63516	50.3644	40
38	63564	50.41104	40
38	63612	50.45768	40
38	63660	50.50432	40
38	63708	50.55096	40
38	63756	50.5976	40
38	63800	50.64424	40
39	63172	50.03792	0
39	63228	50.08456	0
39	63276	50.1312	0
39	63324	50.17784	0
39	63372	50.22448	0
39	63420	50.27112	0
39	63468	50.31776	0
39	63516	50.3644	0
39	63564	50.41104	0
39	63612	50.45768	0
39	63660	50.50432	0
39	63708	50.55096	0
39	63756	50.5976	0
39	63800	50.64424	0
40	63173	50.03792	40
40	63229	50.08456	40
40	63277	50.1312	40
40	63325	50.17784	40
40	63373	50.22448	40
40	63421	50.27112	40
40	63469	50.31776	40
40	63517	50.3644	40
40	63565	50.41104	40
40	63613	50.45768	40
40	63661	50.50432	40
40	63709	50.55096	40
40	63757	50.5976	40
40	63801	50.64424	40
41	63173	50.03792	47
41	63229	50.08456	47
41	63277	50.1312	47
41	63325	50.17784	47
41	63373	50.22448	47
41	63421	50.27112	47
41	63469	50.31776	47
41	63517	50.3644	47
41	63565	50.41104	47
41	63613	50.45768	47
41	63661	50.50432	47
41	63709	50.55096	47
41	63757	50.5976	47
41	63801	50.64424	47
42	63174	50.03792	40
42	63230	50.08456	40
42	63278	50.1312	40
42	63326	50.17784	40
42	63374	50.22448	40
42	63422	50.27112	40
42	63470	50.31776	40
42	63518	50.3644	40
42	63566	50.41104	40
42	63614	50.45768	40
42	63662	50.50432	40
42	63710	50.55096	40
42	63758	50.5976	40
42	63802	50.64424	40
43	63174	50.03792	47
43	63230	50.08456	47
43	63278	50.1312	47
43	63326	50.17784	47
43	63374	50.22448	47
43	63422	50.27112	47
43	63470	50.31776	47
43	63518	50.3644	47
43	63566	50.41104	47
43	63614	50.45768	47
43	63662	50.50432	47
43	63710	50.55096	47
43	63758	50.5976	47
43	63802	50.64424	47
44	63175	50.03792	40
44	63231	50.08456	40
44	63279	50.1312	40
44	63327	50.17784	40
44	63375	50.22448	40
44	63423	50.27112	40
44	63471	50.31776	40
44	63519	50.3644	40
44	63567	50.41104	40
44	63615	50.45768	40
44	63663	50.50432	40
44	63711	50.55096	40
44	63759	50.5976	40
44	63803	50.64424	40
45	63175	50.03792	47
45	63231	50.08456	47
45	63279	50.1312	47
45	63327	50.17784	47
45	63375	50.22448	47
45	63423	50.27112	47
45	63471	50.31776	47
45	63519	50.3644	47
45	63567	50.41104	47
45	63615	50.45768	47
45	63663	50.50432	47
45	63711	50.55096	47
45	63759	50.5976	47
45	63803	50.64424	47
46	63176	50.03792	40
46	63232	50.08456	40
46	63280	50.1312	40
46	63328	50.17784	40
46	63376	50.22448	40
46	63424	50.27112	40
46	63472	50.31776	40
46	63520	50.3644	40
46	63568	50.41104	40
46	63616	50.45768	40
46	63664	50.50432	40
46	63712	50.55096	40
46	63760	50.5976	40
46	63804	50.64424	40
47	63176	50.03792	47
47	63232	50.08456	47
47	63280	50.1312	47
47	63328	50.17784	47
47	63376	50.22448	47
47	63424	50.27112	47
47	63472	50.31776	47
47	63520	50.3644	47
47	63568	50.41104	47
47	63616	50.45768	47
47	63664	50.50432	47
47	63712	50.55096	47
47	63760	50.5976	47
47	63804	50.64424	47
48	63181	50.06168	47
48	63237	50.10832	47
48	63285	50.15496	47
48	63333	50.2016	47
48	63381	50.24824	47
48	63429	50.29488	47
48	63477	50.34152	47
48	63525	50.38816	47
48	63573	50.4348	47
48	63621	50.48144	47
48	63669	50.52808	47
48	63717	50.57472	47
48	63765	50.62136	47
48	63809	50.668	47
49	63181	50.06168	40
49	63237	50.10832	40
49	63285	50.15496	40
49	63333	50.2016	40
49	63381	50.24824	40
49	63429	50.29488	40
49	63477	50.34152	40
49	63525	50.38816	40
49	63573	50.4348	40
49	63621	50.48144	40
49	63669	50.52808	40
49	63717	50.57472	40
49	63765	50.62136	40
49	63809	50.668	40
50	63182	50.06168	47
50	63238	50.10832	47
50	63286	50.15496	47
50	63334	50.2016	47
50	63382	50.24824	47
50	63430	50.29488	47
50	63478	50.34152	47
50	63526	50.38816	47
50	63574	50.4348	47
50	63622	50.48144	47
50	63670	50.52808	47
50	63718	50.57472	47
50	63766	50.62136	47
50	63810	50.668	47
51	63182	50.06168	40
51	63238	50.10832	40
51	63286	50.15496	40
51	63334	50.2016	40
51	63382	50.24824	40
51	63430	50.29488	40
51	63478	50.34152	40
51	63526	50.38816	40
51	63574	50.4348	40
51	63622	50.48144	40
51	63670	50.52808	40
51	63718	50.57472	40
51	63766	50.62136	40
51	63810	50.668	40
52	63183	50.06168	47
52	63239	50.10832	47
52	63287	50.15496	47
52	63335	50.2016	47
52	63383	50.24824	47
52	63431	50.29488	47
52	63479	50.34152	47
52	63527	50.38816	47
52	63575	50.4348	47
52	63623	50.48144	47
52	63671	50.52808	47
52	63719	50.57472	47
52	63767	50.62136	47
52	63811	50.668	47
53	63183	50.06168	40
53	63239	50.10832	40
53	63287	50.15496	40
53	63335	50.2016	40
53	63383	50.24824	40
53	63431	50.29488	40
53	63479	50.34152	40
53	63527	50.38816	40
53	63575	50.4348	40
53	63623	50.48144	40
53	63671	50.52808	40
53	63719	50.57472	40
53	63767	50.62136	40
53	63811	50.668	40
54	63184	50.06168	47
54	63240	50.10832	47
54	63288	50.15496	47
54	63336	50.2016	47
54	63384	50.24824	47
54	63432	50.29488	47
54	63480	50.34152	47
54	63528	50.38816	47
54	63576	50.4348	47
54	63624	50.48144	47
54	63672	50.52808	47
54	63720	50.57472	47
54	63768	50.62136	47
54	63812	50.668	47
55	63184	50.06168	40
55	63240	50.10832	40
55	63288	50.15496	40
55	63336	50.2016	40
55	63384	50.24824	40
55	63432	50.29488	40
55	63480	50.34152	40
55	63528	50.38816	40
55	63576	50.4348	40
55	63624	50.48144	40
55	63672	50.52808	40
55	63720	50.57472	40
55	63768	50.62136	40
55	63812	50.668	40
85	63201	50.06456	0.56256
85	63249	50.1112	0.56256
85	63297	50.15784	0.56256
85	63345	50.20448	0.56256
85	63393	50.25112	0.56256
85	63441	50.29776	0.56256
85	63489	50.3444	0.56256
85	63537	50.39104	0.56256
85	63585	50.43768	0.56256
85	63633	50.48432	0.56256
85	63681	50.53096	0.56256
85	63729	50.5776	0.56256
87	63202	50.06456	0.56256
87	63250	50.1112	0.56256
87	63298	50.15784	0.56256
87	63346	50.20448	0.56256
87	63394	50.25112	0.56256
87	63442	50.29776	0.56256
87	63490	50.3444	0.56256
87	63538	50.39104	0.56256
87	63586	50.43768	0.56256
87	63634	50.48432	0.56256
87	63682	50.53096	0.56256
87	63730	50.5776	0.56256
89	63203	50.06456	0.56256
89	63251	50.1112	0.56256
89	63299	50.15784	0.56256
89	63347	50.20448	0.56256
89	63395	50.25112	0.56256
89	63443	50.29776	0.56256
89	63491	50.3444	0.56256
89	63539	50.39104	0.56256
89	63587	50.43768	0.56256
89	63635	50.48432	0.56256
89	63683	50.53096	0.56256
89	63731	50.5776	0.56256
91	63204	50.06456	0.56256
91	63252	50.1112	0.56256
91	63300	50.15784	0.56256
91	63348	50.20448	0.56256
91	63396	50.25112	0.56256
91	63444	50.29776	0.56256
91	63492	50.3444	0.56256
91	63540	50.39104	0.56256
91	63588	50.43768	0.56256
91	63636	50.48432	0.56256
91	63684	50.53096	0.56256
91	63732	50.5776	0.56256
92	63205	50.06456	576
92	63253	50.1112	576
92	63301	50.15784	576
92	63349	50.20448	576
92	63397	50.25112	576
92	63445	50.29776	576
92	63493	50.3444	576
92	63541	50.39104	576
92	63589	50.43768	576
92	63637	50.48432	576
92	63685	50.53096	576
92	63733	50.5776	576
93	63205	50.06456	583
93	63253	50.1112	583
93	63301	50.15784	583
93	63349	50.20448	583
93	63397	50.25112	583
93	63445	50.29776	583
93	63493	50.3444	583
93	63541	50.39104	583
93	63589	50.43768	583
93	63637	50.48432	583
93	63685	50.53096	583
93	63733	50.5776	583
94	63206	50.06456	576
94	63254	50.1112	576
94	63302	50.15784	576
94	63350	50.20448	576
94	63398	50.25112	576
94	63446	50.29776	576
94	63494	50.3444	576
94	63542	50.39104	576
94	63590	50.43768	576
94	63638	50.48432	576
94	63686	50.53096	576
94	63734	50.5776	576
95	63206	50.06456	583
95	63254	50.1112	583
95	63302	50.15784	583
95	63350	50.20448	583
95	63398	50.25112	583
95	63446	50.29776	583
95	63494	50.3444	583
95	63542	50.39104	583
95	63590	50.43768	583
95	63638	50.48432	583
95	63686	50.53096	583
95	63734	50.5776	583
96	63207	50.06456	576
96	63255	50.1112	576
96	63303	50.15784	576
96	63351	50.20448	576
96	63399	50.25112	576
96	63447	50.29776	576
96	63495	50.3444	576
96	63543	50.39104	576
96	63591	50.43768	576
96	63639	50.48432	576
96	63687	50.53096	576
96	63735	50.5776	576
97	63207	50.06456	583
97	63255	50.1112	583
97	63303	50.15784	583
97	63351	50.20448	583
97	63399	50.25112	583
97	63447	50.29776	583
97	63495	50.3444	583
97	63543	50.39104	583
97	63591	50.43768	583
97	63639	50.48432	583
97	63687	50.53096	583
97	63735	50.5776	583
98	63208	50.06456	576
98	63256	50.1112	576
98	63304	50.15784	576
98	63352	50.20448	576
98	63400	50.25112	576
98	63448	50.29776	576
98	63496	50.3444	576
98	63544	50.39104	576
98	63592	50.43768	576
98	63640	50.48432	576
98	63688	50.53096	576
98	63736	50.5776	576
99	63208	50.06456	583
99	63256	50.1112	583
99	63304	50.15784	583
99	63352	50.20448	583
99	63400	50.25112	583
99	63448	50.29776	583
99	63496	50.3444	583
99	63544	50.39104	583
99	63592	50.43768	583
99	63640	50.48432	583
99	63688	50.53096	583
99	63736	50.5776	583
100	63153	50.03792	583
100	63209	50.08456	583
100	63257	50.1312	583
100	63305	50.17784	583
100	63353	50.22448	583
100	63401	50.27112	583
100	63449	50.31776	583
100	63497	50.3644	583
100	63545	50.41104	583
100	63593	50.45768	583
100	63641	50.50432	583
100	63689	50.55096	583
100	63737	50.5976	583
100	63781	50.64424	583
101	63153	50.03792	576
101	63209	50.08456	576
101	63257	50.1312	576
101	63305	50.17784	576
101	63353	50.22448	576
101	63401	50.27112	576
101	63449	50.31776	576
101	63497	50.3644	576
101	63545	50.41104	576
101	63593	50.45768	576
101	63641	50.50432	576
101	63689	50.55096	576
101	63737	50.5976	576
101	63781	50.64424	576
102	63154	50.03792	583
102	63210	50.08456	583
102	63258	50.1312	583
102	63306	50.17784	583
102	63354	50.22448	583
102	63402	50.27112	583
102	63450	50.31776	583
102	63498	50.3644	583
102	63546	50.41104	583
102	63594	50.45768	583
102	63642	50.50432	583
102	63690	50.55096	583
102	63738	50.5976	583
102	63782	50.64424	583
103	63154	50.03792	576
103	63210	50.08456	576
103	63258	50.1312	576
103	63306	50.17784	576
103	63354	50.22448	576
103	63402	50.27112	576
103	63450	50.31776	576
103	63498	50.3644	576
103	63546	50.41104	576
103	63594	50.45768	576
103	63642	50.50432	576
103	63690	50.55096	576
103	63738	50.5976	576
103	63782	50.64424	576
104	63155	50.03792	583
104	63211	50.08456	583
104	63259	50.1312	583
104	63307	50.17784	583
104	63355	50.22448	583
104	63403	50.27112	583
104	63451	50.31776	583
104	63499	50.3644	583
104	63547	50.41104	583
104	63595	50.45768	583
104	63643	50.50432	583
104	63691	50.55096	583
104	63739	50.5976	583
104	63783	50.64424	583
105	63155	50.03792	576
105	63211	50.08456	576
105	63259	50.1312	576
105	63307	50.17784	576
105	63355	50.22448	576
105	63403	50.27112	576
105	63451	50.31776	576
105	63499	50.3644	576
105	63547	50.41104	576
105	63595	50.45768	576
105	63643	50.50432	576
105	63691	50.55096	576
105	63739	50.5976	576
105	63783	50.64424	576
106	63156	50.03792	583
106	63212	50.08456	583
106	63260	50.1312	583
106	63308	50.17784	583
106	63356	50.22448	583
106	63404	50.27112	583
106	63452	50.31776	583
106	63500	50.3644	583
106	63548	50.41104	583
106	63596	50.45768	583
106	63644	50.50432	583
106	63692	50.55096	583
106	63740	50.5976	583
106	63784	50.64424	583
107	63156	50.03792	576
107	63212	50.08456	576
107	63260	50.1312	576
107	63308	50.17784	576
107	63356	50.22448	576
107	63404	50.27112	576
107	63452	50.31776	576
107	63500	50.3644	576
107	63548	50.41104	576
107	63596	50.45768	576
107	63644	50.50432	576
107	63692	50.55096	576
107	63740	50.5976	576
107	63784	50.64424	576
184	63245	50.10832	250201
184	63246	50.10832	250201
184	63293	50.15496	250201
184	63294	50.15496	250201
184	63341	50.2016	250201
184	63342	50.2016	250201
184	63389	50.24824	250201
184	63390	50.24824	250201
184	63437	50.29488	250201
184	63438	50.29488	250201
184	63485	50.34152	250201
184	63486	50.34152	250201
184	63533	50.38816	250201
184	63534	50.38816	250201
184	63581	50.4348	250201
184	63582	50.4348	250201
184	63629	50.48144	250201
184	63630	50.48144	250201
184	63677	50.52808	250201
184	63678	50.52808	250201
184	63725	50.57472	250201
184	63726	50.57472	250201
184	63773	50.62136	250201
184	63774	50.62136	250201
184	63817	50.668	250201
184	63818	50.668	250201
185	63245	50.10832	0
185	63246	50.10832	0
185	63293	50.15496	0
185	63294	50.15496	0
185	63341	50.2016	0
185	63342	50.2016	0
185	63389	50.24824	0
185	63390	50.24824	0
185	63437	50.29488	0
185	63438	50.29488	0
185	63485	50.34152	0
185	63486	50.34152	0
185	63533	50.38816	0
185	63534	50.38816	0
185	63581	50.4348	0
185	63582	50.4348	0
185	63629	50.48144	0
185	63630	50.48144	0
185	63677	50.52808	0
185	63678	50.52808	0
185	63725	50.57472	0
185	63726	50.57472	0
185	63773	50.62136	0
185	63774	50.62136	0
185	63817	50.668	0
185	63818	50.668	0
186	63247	50.10832	250201
186	63248	50.10832	250201
186	63295	50.15496	250201
186	63296	50.15496	250201
186	63343	50.2016	250201
186	63344	50.2016	250201
186	63391	50.24824	250201
186	63392	50.24824	250201
186	63439	50.29488	250201
186	63440	50.29488	250201
186	63487	50.34152	250201
186	63488	50.34152	250201
186	63535	50.38816	250201
186	63536	50.38816	250201
186	63583	50.4348	250201
186	63584	50.4348	250201
186	63631	50.48144	250201
186	63632	50.48144	250201
186	63679	50.52808	250201
186	63680	50.52808	250201
186	63727	50.57472	250201
186	63728	50.57472	250201
186	63775	50.62136	250201
186	63776	50.62136	250201
186	63819	50.668	250201
186	63820	50.668	250201
187	63247	50.10832	0
187	63248	50.10832	0
187	63295	50.15496	0
187	63296	50.15496	0
187	63343	50.2016	0
187	63344	50.2016	0
187	63391	50.24824	0
187	63392	50.24824	0
187	63439	50.29488	0
187	63440	50.29488	0
187	63487	50.34152	0
187	63488	50.34152	0
187	63535	50.38816	0
187	63536	50.38816	0
187	63583	50.4348	0
187	63584	50.4348	0
187	63631	50.48144	0
187	63632	50.48144	0
187	63679	50.52808	0
187	63680	50.52808	0
187	63727	50.57472	0
187	63728	50.57472	0
187	63775	50.62136	0
187	63776	50.62136	0
187	63819	50.668	0
187	63820	50.668	0

